{
   "completed_at" : "20201116T025404Z",
   "completed_status" : "Success",
   "created_at" : "2020-11-16 02:52:51 +0000",
   "current_step" : 16,
   "description" : "",
   "eplusout_err" : "Program Version,EnergyPlus, Version 9.2.0-921312fa1d, YMD=2020.11.16 02:53,\n   ** Warning ** Timestep: Requested number (1) is less than the suggested minimum of 4.\n   **   ~~~   ** Please see entry for Timestep in Input/Output Reference for discussion of considerations.\n   ************* Beginning Zone Sizing Calculations\n   ** Warning ** ProcessScheduleInput: DecodeHHMMField, Invalid \"until\" field value is not a multiple of the minutes for each timestep: 22:23\n   **   ~~~   ** Other errors may result. Occurred in Day Schedule=OFFICESMALL HTGSETP_SCH_NO_OPTIMUM DEFAULT\n   ** Warning ** ProcessScheduleInput: DecodeHHMMField, Invalid \"until\" field value is not a multiple of the minutes for each timestep: 04:23\n   **   ~~~   ** Other errors may result. Occurred in Day Schedule=OFFICESMALL HTGSETP_SCH_NO_OPTIMUM WKDY DAY\n   ** Warning ** ProcessScheduleInput: DecodeHHMMField, Invalid \"until\" field value is not a multiple of the minutes for each timestep: 17:23\n   **   ~~~   ** Other errors may result. Occurred in Day Schedule=OFFICESMALL HTGSETP_SCH_NO_OPTIMUM WKDY DAY\n   ** Warning ** ProcessScheduleInput: DecodeHHMMField, Invalid \"until\" field value is not a multiple of the minutes for each timestep: 22:23\n   **   ~~~   ** Other errors may result. Occurred in Day Schedule=OFFICESMALL HTGSETP_SCH_NO_OPTIMUM WKDY DAY\n   ** Warning ** ProcessScheduleInput: DecodeHHMMField, Invalid \"until\" field value is not a multiple of the minutes for each timestep: 22:23\n   **   ~~~   ** Other errors may result. Occurred in Day Schedule=OFFICESMALL HTGSETP_SCH_NO_OPTIMUM SUMMER DESIGN DAY\n   ** Warning ** ProcessScheduleInput: DecodeHHMMField, Invalid \"until\" field value is not a multiple of the minutes for each timestep: 22:23\n   **   ~~~   ** Other errors may result. Occurred in Day Schedule=OFFICESMALL HTGSETP_SCH_NO_OPTIMUM WINTER DESIGN DAY\n   ** Warning ** ProcessScheduleInput: DecodeHHMMField, Invalid \"until\" field value is not a multiple of the minutes for each timestep: 22:23\n   **   ~~~   ** Other errors may result. Occurred in Day Schedule=OFFICESMALL CLGSETP_SCH_NO_OPTIMUM DEFAULT\n   ** Warning ** ProcessScheduleInput: DecodeHHMMField, Invalid \"until\" field value is not a multiple of the minutes for each timestep: 04:23\n   **   ~~~   ** Other errors may result. Occurred in Day Schedule=OFFICESMALL CLGSETP_SCH_NO_OPTIMUM WKDY DAY\n   ** Warning ** ProcessScheduleInput: DecodeHHMMField, Invalid \"until\" field value is not a multiple of the minutes for each timestep: 16:23\n   **   ~~~   ** Other errors may result. Occurred in Day Schedule=OFFICESMALL CLGSETP_SCH_NO_OPTIMUM WKDY DAY\n   ** Warning ** ProcessScheduleInput: DecodeHHMMField, Invalid \"until\" field value is not a multiple of the minutes for each timestep: 22:23\n   **   ~~~   ** Other errors may result. Occurred in Day Schedule=OFFICESMALL CLGSETP_SCH_NO_OPTIMUM WKDY DAY\n   ** Warning ** ProcessScheduleInput: DecodeHHMMField, Invalid \"until\" field value is not a multiple of the minutes for each timestep: 22:23\n   **   ~~~   ** Other errors may result. Occurred in Day Schedule=OFFICESMALL CLGSETP_SCH_NO_OPTIMUM SUMMER DESIGN DAY\n   ** Warning ** ProcessScheduleInput: DecodeHHMMField, Invalid \"until\" field value is not a multiple of the minutes for each timestep: 22:23\n   **   ~~~   ** Other errors may result. Occurred in Day Schedule=OFFICESMALL CLGSETP_SCH_NO_OPTIMUM WINTER DESIGN DAY\n   ** Warning ** ProcessScheduleInput: DecodeHHMMField, Invalid \"until\" field value is not a multiple of the minutes for each timestep: 22:23\n   **   ~~~   ** Other errors may result. Occurred in Day Schedule=OFFICESMALL HVACOPERATIONSCHD DEFAULT\n   ** Warning ** ProcessScheduleInput: DecodeHHMMField, Invalid \"until\" field value is not a multiple of the minutes for each timestep: 04:23\n   **   ~~~   ** Other errors may result. Occurred in Day Schedule=OFFICESMALL HVACOPERATIONSCHD SMRDSN|WKDY DAY\n   ** Warning ** ProcessScheduleInput: DecodeHHMMField, Invalid \"until\" field value is not a multiple of the minutes for each timestep: 17:23\n   **   ~~~   ** Other errors may result. Occurred in Day Schedule=OFFICESMALL HVACOPERATIONSCHD SMRDSN|WKDY DAY\n   ** Warning ** ProcessScheduleInput: DecodeHHMMField, Invalid \"until\" field value is not a multiple of the minutes for each timestep: 22:23\n   **   ~~~   ** Other errors may result. Occurred in Day Schedule=OFFICESMALL HVACOPERATIONSCHD SMRDSN|WKDY DAY\n   ** Warning ** ProcessScheduleInput: DecodeHHMMField, Invalid \"until\" field value is not a multiple of the minutes for each timestep: 04:23\n   **   ~~~   ** Other errors may result. Occurred in Day Schedule=OFFICESMALL HVACOPERATIONSCHD SUMMER DESIGN DAY\n   ** Warning ** ProcessScheduleInput: DecodeHHMMField, Invalid \"until\" field value is not a multiple of the minutes for each timestep: 17:23\n   **   ~~~   ** Other errors may result. Occurred in Day Schedule=OFFICESMALL HVACOPERATIONSCHD SUMMER DESIGN DAY\n   ** Warning ** ProcessScheduleInput: DecodeHHMMField, Invalid \"until\" field value is not a multiple of the minutes for each timestep: 22:23\n   **   ~~~   ** Other errors may result. Occurred in Day Schedule=OFFICESMALL HVACOPERATIONSCHD SUMMER DESIGN DAY\n   ** Warning ** ProcessScheduleInput: DecodeHHMMField, Invalid \"until\" field value is not a multiple of the minutes for each timestep: 22:23\n   **   ~~~   ** Other errors may result. Occurred in Day Schedule=OFFICESMALL HVACOPERATIONSCHD WINTER DESIGN DAY\n   ** Warning ** ProcessScheduleInput: DecodeHHMMField, Invalid \"until\" field value is not a multiple of the minutes for each timestep: 19:09\n   **   ~~~   ** Other errors may result. Occurred in Day Schedule=AIR VELOCITY SCHEDULE DEFAULT\n   ** Warning ** ProcessScheduleInput: DecodeHHMMField, Invalid \"until\" field value is not a multiple of the minutes for each timestep: 20:46\n   **   ~~~   ** Other errors may result. Occurred in Day Schedule=AIR VELOCITY SCHEDULE DEFAULT\n   ** Warning ** ProcessScheduleInput: DecodeHHMMField, Invalid \"until\" field value is not a multiple of the minutes for each timestep: 22:23\n   **   ~~~   ** Other errors may result. Occurred in Day Schedule=AIR VELOCITY SCHEDULE DEFAULT\n   ** Warning ** ProcessScheduleInput: DecodeHHMMField, Invalid \"until\" field value is not a multiple of the minutes for each timestep: 19:09\n   **   ~~~   ** Other errors may result. Occurred in Day Schedule=AMBIENT LOOP TEMPERATURE - DEFAULT\n   ** Warning ** ProcessScheduleInput: DecodeHHMMField, Invalid \"until\" field value is not a multiple of the minutes for each timestep: 20:46\n   **   ~~~   ** Other errors may result. Occurred in Day Schedule=AMBIENT LOOP TEMPERATURE - DEFAULT\n   ** Warning ** ProcessScheduleInput: DecodeHHMMField, Invalid \"until\" field value is not a multiple of the minutes for each timestep: 22:23\n   **   ~~~   ** Other errors may result. Occurred in Day Schedule=AMBIENT LOOP TEMPERATURE - DEFAULT\n   ** Warning ** ProcessScheduleInput: DecodeHHMMField, Invalid \"until\" field value is not a multiple of the minutes for each timestep: 19:09\n   **   ~~~   ** Other errors may result. Occurred in Day Schedule=CLOTHING SCHEDULE DEFAULT WINTER CLOTHES\n   ** Warning ** ProcessScheduleInput: DecodeHHMMField, Invalid \"until\" field value is not a multiple of the minutes for each timestep: 20:46\n   **   ~~~   ** Other errors may result. Occurred in Day Schedule=CLOTHING SCHEDULE DEFAULT WINTER CLOTHES\n   ** Warning ** ProcessScheduleInput: DecodeHHMMField, Invalid \"until\" field value is not a multiple of the minutes for each timestep: 22:23\n   **   ~~~   ** Other errors may result. Occurred in Day Schedule=CLOTHING SCHEDULE DEFAULT WINTER CLOTHES\n   ** Warning ** ProcessScheduleInput: DecodeHHMMField, Invalid \"until\" field value is not a multiple of the minutes for each timestep: 22:23\n   **   ~~~   ** Other errors may result. Occurred in Day Schedule=CLOTHING SCHEDULE SUMMER CLOTHES\n   ** Warning ** ProcessScheduleInput: Schedule:Day:Interval=\"ECONOMIZER MAX OA FRACTION 70 PCT DEFAULT\", Blank Schedule Type Limits Name input -- will not be validated.\n   ** Warning ** ProcessScheduleInput: DecodeHHMMField, Invalid \"until\" field value is not a multiple of the minutes for each timestep: 22:23\n   **   ~~~   ** Other errors may result. Occurred in Day Schedule=OFFICELARGE INFIL_SCH_PNNL DEFAULT\n   ** Warning ** ProcessScheduleInput: DecodeHHMMField, Invalid \"until\" field value is not a multiple of the minutes for each timestep: 04:23\n   **   ~~~   ** Other errors may result. Occurred in Day Schedule=OFFICELARGE INFIL_SCH_PNNL SMRDSN|WKDY DAY\n   ** Warning ** ProcessScheduleInput: DecodeHHMMField, Invalid \"until\" field value is not a multiple of the minutes for each timestep: 20:23\n   **   ~~~   ** Other errors may result. Occurred in Day Schedule=OFFICELARGE INFIL_SCH_PNNL SMRDSN|WKDY DAY\n   ** Warning ** ProcessScheduleInput: DecodeHHMMField, Invalid \"until\" field value is not a multiple of the minutes for each timestep: 22:23\n   **   ~~~   ** Other errors may result. Occurred in Day Schedule=OFFICELARGE INFIL_SCH_PNNL SMRDSN|WKDY DAY\n   ** Warning ** ProcessScheduleInput: DecodeHHMMField, Invalid \"until\" field value is not a multiple of the minutes for each timestep: 04:23\n   **   ~~~   ** Other errors may result. Occurred in Day Schedule=OFFICELARGE INFIL_SCH_PNNL SUMMER DESIGN DAY\n   ** Warning ** ProcessScheduleInput: DecodeHHMMField, Invalid \"until\" field value is not a multiple of the minutes for each timestep: 20:23\n   **   ~~~   ** Other errors may result. Occurred in Day Schedule=OFFICELARGE INFIL_SCH_PNNL SUMMER DESIGN DAY\n   ** Warning ** ProcessScheduleInput: DecodeHHMMField, Invalid \"until\" field value is not a multiple of the minutes for each timestep: 22:23\n   **   ~~~   ** Other errors may result. Occurred in Day Schedule=OFFICELARGE INFIL_SCH_PNNL SUMMER DESIGN DAY\n   ** Warning ** ProcessScheduleInput: DecodeHHMMField, Invalid \"until\" field value is not a multiple of the minutes for each timestep: 04:23\n   **   ~~~   ** Other errors may result. Occurred in Day Schedule=OFFICELARGE INFIL_SCH_PNNL WINTER DESIGN DAY\n   ** Warning ** ProcessScheduleInput: DecodeHHMMField, Invalid \"until\" field value is not a multiple of the minutes for each timestep: 16:23\n   **   ~~~   ** Other errors may result. Occurred in Day Schedule=OFFICELARGE INFIL_SCH_PNNL WINTER DESIGN DAY\n   ** Warning ** ProcessScheduleInput: DecodeHHMMField, Invalid \"until\" field value is not a multiple of the minutes for each timestep: 22:23\n   **   ~~~   ** Other errors may result. Occurred in Day Schedule=OFFICELARGE INFIL_SCH_PNNL WINTER DESIGN DAY\n   ** Warning ** ProcessScheduleInput: DecodeHHMMField, Invalid \"until\" field value is not a multiple of the minutes for each timestep: 04:23\n   **   ~~~   ** Other errors may result. Occurred in Day Schedule=OFFICELARGE INFIL_SCH_PNNL WNTRDSN|SAT DAY\n   ** Warning ** ProcessScheduleInput: DecodeHHMMField, Invalid \"until\" field value is not a multiple of the minutes for each timestep: 16:23\n   **   ~~~   ** Other errors may result. Occurred in Day Schedule=OFFICELARGE INFIL_SCH_PNNL WNTRDSN|SAT DAY\n   ** Warning ** ProcessScheduleInput: DecodeHHMMField, Invalid \"until\" field value is not a multiple of the minutes for each timestep: 22:23\n   **   ~~~   ** Other errors may result. Occurred in Day Schedule=OFFICELARGE INFIL_SCH_PNNL WNTRDSN|SAT DAY\n   ** Warning ** ProcessScheduleInput: DecodeHHMMField, Invalid \"until\" field value is not a multiple of the minutes for each timestep: 22:23\n   **   ~~~   ** Other errors may result. Occurred in Day Schedule=OFFICESMALL BLDG_SWH_SCH DEFAULT\n   ** Warning ** ProcessScheduleInput: DecodeHHMMField, Invalid \"until\" field value is not a multiple of the minutes for each timestep: 05:23\n   **   ~~~   ** Other errors may result. Occurred in Day Schedule=OFFICESMALL BLDG_SWH_SCH SUMMER DESIGN DAY\n   ** Warning ** ProcessScheduleInput: DecodeHHMMField, Invalid \"until\" field value is not a multiple of the minutes for each timestep: 06:23\n   **   ~~~   ** Other errors may result. Occurred in Day Schedule=OFFICESMALL BLDG_SWH_SCH SUMMER DESIGN DAY\n   ** Warning ** ProcessScheduleInput: DecodeHHMMField, Invalid \"until\" field value is not a multiple of the minutes for each timestep: 07:23\n   **   ~~~   ** Other errors may result. Occurred in Day Schedule=OFFICESMALL BLDG_SWH_SCH SUMMER DESIGN DAY\n   ** Warning ** ProcessScheduleInput: DecodeHHMMField, Invalid \"until\" field value is not a multiple of the minutes for each timestep: 09:23\n   **   ~~~   ** Other errors may result. Occurred in Day Schedule=OFFICESMALL BLDG_SWH_SCH SUMMER DESIGN DAY\n   ** Warning ** ProcessScheduleInput: DecodeHHMMField, Invalid \"until\" field value is not a multiple of the minutes for each timestep: 10:23\n   **   ~~~   ** Other errors may result. Occurred in Day Schedule=OFFICESMALL BLDG_SWH_SCH SUMMER DESIGN DAY\n   ** Warning ** ProcessScheduleInput: DecodeHHMMField, Invalid \"until\" field value is not a multiple of the minutes for each timestep: 11:23\n   **   ~~~   ** Other errors may result. Occurred in Day Schedule=OFFICESMALL BLDG_SWH_SCH SUMMER DESIGN DAY\n   ** Warning ** ProcessScheduleInput: DecodeHHMMField, Invalid \"until\" field value is not a multiple of the minutes for each timestep: 12:23\n   **   ~~~   ** Other errors may result. Occurred in Day Schedule=OFFICESMALL BLDG_SWH_SCH SUMMER DESIGN DAY\n   ** Warning ** ProcessScheduleInput: DecodeHHMMField, Invalid \"until\" field value is not a multiple of the minutes for each timestep: 14:23\n   **   ~~~   ** Other errors may result. Occurred in Day Schedule=OFFICESMALL BLDG_SWH_SCH SUMMER DESIGN DAY\n   ** Warning ** ProcessScheduleInput: DecodeHHMMField, Invalid \"until\" field value is not a multiple of the minutes for each timestep: 15:23\n   **   ~~~   ** Other errors may result. Occurred in Day Schedule=OFFICESMALL BLDG_SWH_SCH SUMMER DESIGN DAY\n   ** Warning ** ProcessScheduleInput: DecodeHHMMField, Invalid \"until\" field value is not a multiple of the minutes for each timestep: 17:23\n   **   ~~~   ** Other errors may result. Occurred in Day Schedule=OFFICESMALL BLDG_SWH_SCH SUMMER DESIGN DAY\n   ** Warning ** ProcessScheduleInput: DecodeHHMMField, Invalid \"until\" field value is not a multiple of the minutes for each timestep: 18:23\n   **   ~~~   ** Other errors may result. Occurred in Day Schedule=OFFICESMALL BLDG_SWH_SCH SUMMER DESIGN DAY\n   ** Warning ** ProcessScheduleInput: DecodeHHMMField, Invalid \"until\" field value is not a multiple of the minutes for each timestep: 19:23\n   **   ~~~   ** Other errors may result. Occurred in Day Schedule=OFFICESMALL BLDG_SWH_SCH SUMMER DESIGN DAY\n   ** Warning ** ProcessScheduleInput: DecodeHHMMField, Invalid \"until\" field value is not a multiple of the minutes for each timestep: 20:23\n   **   ~~~   ** Other errors may result. Occurred in Day Schedule=OFFICESMALL BLDG_SWH_SCH SUMMER DESIGN DAY\n   ** Warning ** ProcessScheduleInput: DecodeHHMMField, Invalid \"until\" field value is not a multiple of the minutes for each timestep: 22:23\n   **   ~~~   ** Other errors may result. Occurred in Day Schedule=OFFICESMALL BLDG_SWH_SCH SUMMER DESIGN DAY\n   ** Warning ** ProcessScheduleInput: DecodeHHMMField, Invalid \"until\" field value is not a multiple of the minutes for each timestep: 05:23\n   **   ~~~   ** Other errors may result. Occurred in Day Schedule=OFFICESMALL BLDG_SWH_SCH WINTER DESIGN DAY\n   ** Warning ** ProcessScheduleInput: DecodeHHMMField, Invalid \"until\" field value is not a multiple of the minutes for each timestep: 06:23\n   **   ~~~   ** Other errors may result. Occurred in Day Schedule=OFFICESMALL BLDG_SWH_SCH WINTER DESIGN DAY\n   ** Warning ** ProcessScheduleInput: DecodeHHMMField, Invalid \"until\" field value is not a multiple of the minutes for each timestep: 07:23\n   **   ~~~   ** Other errors may result. Occurred in Day Schedule=OFFICESMALL BLDG_SWH_SCH WINTER DESIGN DAY\n   ** Warning ** ProcessScheduleInput: DecodeHHMMField, Invalid \"until\" field value is not a multiple of the minutes for each timestep: 09:23\n   **   ~~~   ** Other errors may result. Occurred in Day Schedule=OFFICESMALL BLDG_SWH_SCH WINTER DESIGN DAY\n   ** Warning ** ProcessScheduleInput: DecodeHHMMField, Invalid \"until\" field value is not a multiple of the minutes for each timestep: 10:23\n   **   ~~~   ** Other errors may result. Occurred in Day Schedule=OFFICESMALL BLDG_SWH_SCH WINTER DESIGN DAY\n   ** Warning ** ProcessScheduleInput: DecodeHHMMField, Invalid \"until\" field value is not a multiple of the minutes for each timestep: 11:23\n   **   ~~~   ** Other errors may result. Occurred in Day Schedule=OFFICESMALL BLDG_SWH_SCH WINTER DESIGN DAY\n   ** Warning ** ProcessScheduleInput: DecodeHHMMField, Invalid \"until\" field value is not a multiple of the minutes for each timestep: 12:23\n   **   ~~~   ** Other errors may result. Occurred in Day Schedule=OFFICESMALL BLDG_SWH_SCH WINTER DESIGN DAY\n   ** Warning ** ProcessScheduleInput: DecodeHHMMField, Invalid \"until\" field value is not a multiple of the minutes for each timestep: 14:23\n   **   ~~~   ** Other errors may result. Occurred in Day Schedule=OFFICESMALL BLDG_SWH_SCH WINTER DESIGN DAY\n   ** Warning ** ProcessScheduleInput: DecodeHHMMField, Invalid \"until\" field value is not a multiple of the minutes for each timestep: 15:23\n   **   ~~~   ** Other errors may result. Occurred in Day Schedule=OFFICESMALL BLDG_SWH_SCH WINTER DESIGN DAY\n   ** Warning ** ProcessScheduleInput: DecodeHHMMField, Invalid \"until\" field value is not a multiple of the minutes for each timestep: 17:23\n   **   ~~~   ** Other errors may result. Occurred in Day Schedule=OFFICESMALL BLDG_SWH_SCH WINTER DESIGN DAY\n   ** Warning ** ProcessScheduleInput: DecodeHHMMField, Invalid \"until\" field value is not a multiple of the minutes for each timestep: 18:23\n   **   ~~~   ** Other errors may result. Occurred in Day Schedule=OFFICESMALL BLDG_SWH_SCH WINTER DESIGN DAY\n   ** Warning ** ProcessScheduleInput: DecodeHHMMField, Invalid \"until\" field value is not a multiple of the minutes for each timestep: 19:23\n   **   ~~~   ** Other errors may result. Occurred in Day Schedule=OFFICESMALL BLDG_SWH_SCH WINTER DESIGN DAY\n   ** Warning ** ProcessScheduleInput: DecodeHHMMField, Invalid \"until\" field value is not a multiple of the minutes for each timestep: 20:23\n   **   ~~~   ** Other errors may result. Occurred in Day Schedule=OFFICESMALL BLDG_SWH_SCH WINTER DESIGN DAY\n   ** Warning ** ProcessScheduleInput: DecodeHHMMField, Invalid \"until\" field value is not a multiple of the minutes for each timestep: 22:23\n   **   ~~~   ** Other errors may result. Occurred in Day Schedule=OFFICESMALL BLDG_SWH_SCH WINTER DESIGN DAY\n   ** Warning ** ProcessScheduleInput: DecodeHHMMField, Invalid \"until\" field value is not a multiple of the minutes for each timestep: 05:23\n   **   ~~~   ** Other errors may result. Occurred in Day Schedule=OFFICESMALL BLDG_SWH_SCH WNTRDSN|SMRDSN|WKDY DAY\n   ** Warning ** ProcessScheduleInput: DecodeHHMMField, Invalid \"until\" field value is not a multiple of the minutes for each timestep: 06:23\n   **   ~~~   ** Other errors may result. Occurred in Day Schedule=OFFICESMALL BLDG_SWH_SCH WNTRDSN|SMRDSN|WKDY DAY\n   ** Warning ** ProcessScheduleInput: DecodeHHMMField, Invalid \"until\" field value is not a multiple of the minutes for each timestep: 07:23\n   **   ~~~   ** Other errors may result. Occurred in Day Schedule=OFFICESMALL BLDG_SWH_SCH WNTRDSN|SMRDSN|WKDY DAY\n   ** Warning ** ProcessScheduleInput: DecodeHHMMField, Invalid \"until\" field value is not a multiple of the minutes for each timestep: 09:23\n   **   ~~~   ** Other errors may result. Occurred in Day Schedule=OFFICESMALL BLDG_SWH_SCH WNTRDSN|SMRDSN|WKDY DAY\n   ** Warning ** ProcessScheduleInput: DecodeHHMMField, Invalid \"until\" field value is not a multiple of the minutes for each timestep: 10:23\n   **   ~~~   ** Other errors may result. Occurred in Day Schedule=OFFICESMALL BLDG_SWH_SCH WNTRDSN|SMRDSN|WKDY DAY\n   ** Warning ** ProcessScheduleInput: DecodeHHMMField, Invalid \"until\" field value is not a multiple of the minutes for each timestep: 11:23\n   **   ~~~   ** Other errors may result. Occurred in Day Schedule=OFFICESMALL BLDG_SWH_SCH WNTRDSN|SMRDSN|WKDY DAY\n   ** Warning ** ProcessScheduleInput: DecodeHHMMField, Invalid \"until\" field value is not a multiple of the minutes for each timestep: 12:23\n   **   ~~~   ** Other errors may result. Occurred in Day Schedule=OFFICESMALL BLDG_SWH_SCH WNTRDSN|SMRDSN|WKDY DAY\n   ** Warning ** ProcessScheduleInput: DecodeHHMMField, Invalid \"until\" field value is not a multiple of the minutes for each timestep: 14:23\n   **   ~~~   ** Other errors may result. Occurred in Day Schedule=OFFICESMALL BLDG_SWH_SCH WNTRDSN|SMRDSN|WKDY DAY\n   ** Warning ** ProcessScheduleInput: DecodeHHMMField, Invalid \"until\" field value is not a multiple of the minutes for each timestep: 15:23\n   **   ~~~   ** Other errors may result. Occurred in Day Schedule=OFFICESMALL BLDG_SWH_SCH WNTRDSN|SMRDSN|WKDY DAY\n   ** Warning ** ProcessScheduleInput: DecodeHHMMField, Invalid \"until\" field value is not a multiple of the minutes for each timestep: 17:23\n   **   ~~~   ** Other errors may result. Occurred in Day Schedule=OFFICESMALL BLDG_SWH_SCH WNTRDSN|SMRDSN|WKDY DAY\n   ** Warning ** ProcessScheduleInput: DecodeHHMMField, Invalid \"until\" field value is not a multiple of the minutes for each timestep: 18:23\n   **   ~~~   ** Other errors may result. Occurred in Day Schedule=OFFICESMALL BLDG_SWH_SCH WNTRDSN|SMRDSN|WKDY DAY\n   ** Warning ** ProcessScheduleInput: DecodeHHMMField, Invalid \"until\" field value is not a multiple of the minutes for each timestep: 19:23\n   **   ~~~   ** Other errors may result. Occurred in Day Schedule=OFFICESMALL BLDG_SWH_SCH WNTRDSN|SMRDSN|WKDY DAY\n   ** Warning ** ProcessScheduleInput: DecodeHHMMField, Invalid \"until\" field value is not a multiple of the minutes for each timestep: 20:23\n   **   ~~~   ** Other errors may result. Occurred in Day Schedule=OFFICESMALL BLDG_SWH_SCH WNTRDSN|SMRDSN|WKDY DAY\n   ** Warning ** ProcessScheduleInput: DecodeHHMMField, Invalid \"until\" field value is not a multiple of the minutes for each timestep: 22:23\n   **   ~~~   ** Other errors may result. Occurred in Day Schedule=OFFICESMALL BLDG_SWH_SCH WNTRDSN|SMRDSN|WKDY DAY\n   ** Warning ** ProcessScheduleInput: DecodeHHMMField, Invalid \"until\" field value is not a multiple of the minutes for each timestep: 04:23\n   **   ~~~   ** Other errors may result. Occurred in Day Schedule=OFFICESMALL EXTERIOR_LIGHTING_SCHEDULE_A DEFAULT\n   ** Warning ** ProcessScheduleInput: DecodeHHMMField, Invalid \"until\" field value is not a multiple of the minutes for each timestep: 22:23\n   **   ~~~   ** Other errors may result. Occurred in Day Schedule=OFFICESMALL EXTERIOR_LIGHTING_SCHEDULE_A DEFAULT\n   ** Warning ** ProcessScheduleInput: DecodeHHMMField, Invalid \"until\" field value is not a multiple of the minutes for each timestep: 04:23\n   **   ~~~   ** Other errors may result. Occurred in Day Schedule=OFFICESMALL EXTERIOR_LIGHTING_SCHEDULE_A SUMMER DESIGN DAY\n   ** Warning ** ProcessScheduleInput: DecodeHHMMField, Invalid \"until\" field value is not a multiple of the minutes for each timestep: 22:23\n   **   ~~~   ** Other errors may result. Occurred in Day Schedule=OFFICESMALL EXTERIOR_LIGHTING_SCHEDULE_A SUMMER DESIGN DAY\n   ** Warning ** ProcessScheduleInput: DecodeHHMMField, Invalid \"until\" field value is not a multiple of the minutes for each timestep: 04:23\n   **   ~~~   ** Other errors may result. Occurred in Day Schedule=OFFICESMALL EXTERIOR_LIGHTING_SCHEDULE_A WINTER DESIGN DAY\n   ** Warning ** ProcessScheduleInput: DecodeHHMMField, Invalid \"until\" field value is not a multiple of the minutes for each timestep: 22:23\n   **   ~~~   ** Other errors may result. Occurred in Day Schedule=OFFICESMALL EXTERIOR_LIGHTING_SCHEDULE_A WINTER DESIGN DAY\n   ** Warning ** ProcessScheduleInput: DecodeHHMMField, Invalid \"until\" field value is not a multiple of the minutes for each timestep: 04:23\n   **   ~~~   ** Other errors may result. Occurred in Day Schedule=OFFICESMALL EXTERIOR_LIGHTING_SCHEDULE_B DEFAULT\n   ** Warning ** ProcessScheduleInput: DecodeHHMMField, Invalid \"until\" field value is not a multiple of the minutes for each timestep: 22:23\n   **   ~~~   ** Other errors may result. Occurred in Day Schedule=OFFICESMALL EXTERIOR_LIGHTING_SCHEDULE_B DEFAULT\n   ** Warning ** ProcessScheduleInput: DecodeHHMMField, Invalid \"until\" field value is not a multiple of the minutes for each timestep: 04:23\n   **   ~~~   ** Other errors may result. Occurred in Day Schedule=OFFICESMALL EXTERIOR_LIGHTING_SCHEDULE_B SUMMER DESIGN DAY\n   ** Warning ** ProcessScheduleInput: DecodeHHMMField, Invalid \"until\" field value is not a multiple of the minutes for each timestep: 22:23\n   **   ~~~   ** Other errors may result. Occurred in Day Schedule=OFFICESMALL EXTERIOR_LIGHTING_SCHEDULE_B SUMMER DESIGN DAY\n   ** Warning ** ProcessScheduleInput: DecodeHHMMField, Invalid \"until\" field value is not a multiple of the minutes for each timestep: 04:23\n   **   ~~~   ** Other errors may result. Occurred in Day Schedule=OFFICESMALL EXTERIOR_LIGHTING_SCHEDULE_B WINTER DESIGN DAY\n   ** Warning ** ProcessScheduleInput: DecodeHHMMField, Invalid \"until\" field value is not a multiple of the minutes for each timestep: 22:23\n   **   ~~~   ** Other errors may result. Occurred in Day Schedule=OFFICESMALL EXTERIOR_LIGHTING_SCHEDULE_B WINTER DESIGN DAY\n   ** Warning ** ProcessScheduleInput: DecodeHHMMField, Invalid \"until\" field value is not a multiple of the minutes for each timestep: 22:23\n   **   ~~~   ** Other errors may result. Occurred in Day Schedule=OFFICESMALL INFIL_QUARTER_ON_SCH DEFAULT\n   ** Warning ** ProcessScheduleInput: DecodeHHMMField, Invalid \"until\" field value is not a multiple of the minutes for each timestep: 05:23\n   **   ~~~   ** Other errors may result. Occurred in Day Schedule=OFFICESMALL INFIL_QUARTER_ON_SCH SMRDSN|WKDY DAY\n   ** Warning ** ProcessScheduleInput: DecodeHHMMField, Invalid \"until\" field value is not a multiple of the minutes for each timestep: 17:23\n   **   ~~~   ** Other errors may result. Occurred in Day Schedule=OFFICESMALL INFIL_QUARTER_ON_SCH SMRDSN|WKDY DAY\n   ** Warning ** ProcessScheduleInput: DecodeHHMMField, Invalid \"until\" field value is not a multiple of the minutes for each timestep: 22:23\n   **   ~~~   ** Other errors may result. Occurred in Day Schedule=OFFICESMALL INFIL_QUARTER_ON_SCH SMRDSN|WKDY DAY\n   ** Warning ** ProcessScheduleInput: DecodeHHMMField, Invalid \"until\" field value is not a multiple of the minutes for each timestep: 05:23\n   **   ~~~   ** Other errors may result. Occurred in Day Schedule=OFFICESMALL INFIL_QUARTER_ON_SCH SUMMER DESIGN DAY\n   ** Warning ** ProcessScheduleInput: DecodeHHMMField, Invalid \"until\" field value is not a multiple of the minutes for each timestep: 17:23\n   **   ~~~   ** Other errors may result. Occurred in Day Schedule=OFFICESMALL INFIL_QUARTER_ON_SCH SUMMER DESIGN DAY\n   ** Warning ** ProcessScheduleInput: DecodeHHMMField, Invalid \"until\" field value is not a multiple of the minutes for each timestep: 22:23\n   **   ~~~   ** Other errors may result. Occurred in Day Schedule=OFFICESMALL INFIL_QUARTER_ON_SCH SUMMER DESIGN DAY\n   ** Warning ** ProcessScheduleInput: DecodeHHMMField, Invalid \"until\" field value is not a multiple of the minutes for each timestep: 05:23\n   **   ~~~   ** Other errors may result. Occurred in Day Schedule=OFFICESMALL INFIL_QUARTER_ON_SCH WINTER DESIGN DAY\n   ** Warning ** ProcessScheduleInput: DecodeHHMMField, Invalid \"until\" field value is not a multiple of the minutes for each timestep: 16:23\n   **   ~~~   ** Other errors may result. Occurred in Day Schedule=OFFICESMALL INFIL_QUARTER_ON_SCH WINTER DESIGN DAY\n   ** Warning ** ProcessScheduleInput: DecodeHHMMField, Invalid \"until\" field value is not a multiple of the minutes for each timestep: 22:23\n   **   ~~~   ** Other errors may result. Occurred in Day Schedule=OFFICESMALL INFIL_QUARTER_ON_SCH WINTER DESIGN DAY\n   ** Warning ** ProcessScheduleInput: DecodeHHMMField, Invalid \"until\" field value is not a multiple of the minutes for each timestep: 05:23\n   **   ~~~   ** Other errors may result. Occurred in Day Schedule=OFFICESMALL INFIL_QUARTER_ON_SCH WNTRDSN|SAT DAY\n   ** Warning ** ProcessScheduleInput: DecodeHHMMField, Invalid \"until\" field value is not a multiple of the minutes for each timestep: 16:23\n   **   ~~~   ** Other errors may result. Occurred in Day Schedule=OFFICESMALL INFIL_QUARTER_ON_SCH WNTRDSN|SAT DAY\n   ** Warning ** ProcessScheduleInput: DecodeHHMMField, Invalid \"until\" field value is not a multiple of the minutes for each timestep: 22:23\n   **   ~~~   ** Other errors may result. Occurred in Day Schedule=OFFICESMALL INFIL_QUARTER_ON_SCH WNTRDSN|SAT DAY\n   ** Warning ** ProcessScheduleInput: DecodeHHMMField, Invalid \"until\" field value is not a multiple of the minutes for each timestep: 22:23\n   **   ~~~   ** Other errors may result. Occurred in Day Schedule=OFFICESMALL MINOA_MOTORIZEDDAMPER_SCHED DEFAULT\n   ** Warning ** ProcessScheduleInput: DecodeHHMMField, Invalid \"until\" field value is not a multiple of the minutes for each timestep: 05:23\n   **   ~~~   ** Other errors may result. Occurred in Day Schedule=OFFICESMALL MINOA_MOTORIZEDDAMPER_SCHED SMRDSN|WKDY DAY\n   ** Warning ** ProcessScheduleInput: DecodeHHMMField, Invalid \"until\" field value is not a multiple of the minutes for each timestep: 17:23\n   **   ~~~   ** Other errors may result. Occurred in Day Schedule=OFFICESMALL MINOA_MOTORIZEDDAMPER_SCHED SMRDSN|WKDY DAY\n   ** Warning ** ProcessScheduleInput: DecodeHHMMField, Invalid \"until\" field value is not a multiple of the minutes for each timestep: 22:23\n   **   ~~~   ** Other errors may result. Occurred in Day Schedule=OFFICESMALL MINOA_MOTORIZEDDAMPER_SCHED SMRDSN|WKDY DAY\n   ** Warning ** ProcessScheduleInput: DecodeHHMMField, Invalid \"until\" field value is not a multiple of the minutes for each timestep: 05:23\n   **   ~~~   ** Other errors may result. Occurred in Day Schedule=OFFICESMALL MINOA_MOTORIZEDDAMPER_SCHED SUMMER DESIGN DAY\n   ** Warning ** ProcessScheduleInput: DecodeHHMMField, Invalid \"until\" field value is not a multiple of the minutes for each timestep: 17:23\n   **   ~~~   ** Other errors may result. Occurred in Day Schedule=OFFICESMALL MINOA_MOTORIZEDDAMPER_SCHED SUMMER DESIGN DAY\n   ** Warning ** ProcessScheduleInput: DecodeHHMMField, Invalid \"until\" field value is not a multiple of the minutes for each timestep: 22:23\n   **   ~~~   ** Other errors may result. Occurred in Day Schedule=OFFICESMALL MINOA_MOTORIZEDDAMPER_SCHED SUMMER DESIGN DAY\n   ** Warning ** ProcessScheduleInput: DecodeHHMMField, Invalid \"until\" field value is not a multiple of the minutes for each timestep: 22:23\n   **   ~~~   ** Other errors may result. Occurred in Day Schedule=OFFICESMALL MINOA_MOTORIZEDDAMPER_SCHED WINTER DESIGN DAY\n   ** Warning ** ProcessScheduleInput: Schedule:Day:Interval=\"RETAILSTANDALONE PSZ_ECON_MAXOAFRAC_SCH DEFAULT\", Blank Schedule Type Limits Name input -- will not be validated.\n   ** Warning ** ProcessScheduleInput: Schedule:Day:Interval=\"RETAILSTANDALONE PSZ_ECON_MAXOAFRAC_SCH SUMMER DESIGN DAY\", Blank Schedule Type Limits Name input -- will not be validated.\n   ** Warning ** ProcessScheduleInput: Schedule:Day:Interval=\"RETAILSTANDALONE PSZ_ECON_MAXOAFRAC_SCH WINTER DESIGN DAY\", Blank Schedule Type Limits Name input -- will not be validated.\n   ** Warning ** ProcessScheduleInput: Schedule:Day:Interval=\"SCHEDULE DAY 1\", Blank Schedule Type Limits Name input -- will not be validated.\n   ** Warning ** ProcessScheduleInput: Schedule:Day:Interval=\"SCHEDULE DAY 10\", Blank Schedule Type Limits Name input -- will not be validated.\n   ** Warning ** ProcessScheduleInput: Schedule:Day:Interval=\"SCHEDULE DAY 11\", Blank Schedule Type Limits Name input -- will not be validated.\n   ** Warning ** ProcessScheduleInput: Schedule:Day:Interval=\"SCHEDULE DAY 12\", Blank Schedule Type Limits Name input -- will not be validated.\n   ** Warning ** ProcessScheduleInput: Schedule:Day:Interval=\"SCHEDULE DAY 13\", Blank Schedule Type Limits Name input -- will not be validated.\n   ** Warning ** ProcessScheduleInput: Schedule:Day:Interval=\"SCHEDULE DAY 14\", Blank Schedule Type Limits Name input -- will not be validated.\n   ** Warning ** ProcessScheduleInput: Schedule:Day:Interval=\"SCHEDULE DAY 15\", Blank Schedule Type Limits Name input -- will not be validated.\n   ** Warning ** ProcessScheduleInput: Schedule:Day:Interval=\"SCHEDULE DAY 16\", Blank Schedule Type Limits Name input -- will not be validated.\n   ** Warning ** ProcessScheduleInput: Schedule:Day:Interval=\"SCHEDULE DAY 17\", Blank Schedule Type Limits Name input -- will not be validated.\n   ** Warning ** ProcessScheduleInput: Schedule:Day:Interval=\"SCHEDULE DAY 18\", Blank Schedule Type Limits Name input -- will not be validated.\n   ** Warning ** ProcessScheduleInput: Schedule:Day:Interval=\"SCHEDULE DAY 19\", Blank Schedule Type Limits Name input -- will not be validated.\n   ** Warning ** ProcessScheduleInput: Schedule:Day:Interval=\"SCHEDULE DAY 2\", Blank Schedule Type Limits Name input -- will not be validated.\n   ** Warning ** ProcessScheduleInput: Schedule:Day:Interval=\"SCHEDULE DAY 20\", Blank Schedule Type Limits Name input -- will not be validated.\n   ** Warning ** ProcessScheduleInput: Schedule:Day:Interval=\"SCHEDULE DAY 21\", Blank Schedule Type Limits Name input -- will not be validated.\n   ** Warning ** ProcessScheduleInput: Schedule:Day:Interval=\"SCHEDULE DAY 22\", Blank Schedule Type Limits Name input -- will not be validated.\n   ** Warning ** ProcessScheduleInput: Schedule:Day:Interval=\"SCHEDULE DAY 25\", Blank Schedule Type Limits Name input -- will not be validated.\n   ** Warning ** ProcessScheduleInput: DecodeHHMMField, Invalid \"until\" field value is not a multiple of the minutes for each timestep: 19:09\n   **   ~~~   ** Other errors may result. Occurred in Day Schedule=SCHEDULE DAY 25\n   ** Warning ** ProcessScheduleInput: DecodeHHMMField, Invalid \"until\" field value is not a multiple of the minutes for each timestep: 20:46\n   **   ~~~   ** Other errors may result. Occurred in Day Schedule=SCHEDULE DAY 25\n   ** Warning ** ProcessScheduleInput: DecodeHHMMField, Invalid \"until\" field value is not a multiple of the minutes for each timestep: 22:23\n   **   ~~~   ** Other errors may result. Occurred in Day Schedule=SCHEDULE DAY 25\n   ** Warning ** ProcessScheduleInput: Schedule:Day:Interval=\"SCHEDULE DAY 26\", Blank Schedule Type Limits Name input -- will not be validated.\n   ** Warning ** ProcessScheduleInput: DecodeHHMMField, Invalid \"until\" field value is not a multiple of the minutes for each timestep: 19:09\n   **   ~~~   ** Other errors may result. Occurred in Day Schedule=SCHEDULE DAY 26\n   ** Warning ** ProcessScheduleInput: DecodeHHMMField, Invalid \"until\" field value is not a multiple of the minutes for each timestep: 20:46\n   **   ~~~   ** Other errors may result. Occurred in Day Schedule=SCHEDULE DAY 26\n   ** Warning ** ProcessScheduleInput: DecodeHHMMField, Invalid \"until\" field value is not a multiple of the minutes for each timestep: 22:23\n   **   ~~~   ** Other errors may result. Occurred in Day Schedule=SCHEDULE DAY 26\n   ** Warning ** ProcessScheduleInput: Schedule:Day:Interval=\"SCHEDULE DAY 27\", Blank Schedule Type Limits Name input -- will not be validated.\n   ** Warning ** ProcessScheduleInput: DecodeHHMMField, Invalid \"until\" field value is not a multiple of the minutes for each timestep: 19:09\n   **   ~~~   ** Other errors may result. Occurred in Day Schedule=SCHEDULE DAY 27\n   ** Warning ** ProcessScheduleInput: DecodeHHMMField, Invalid \"until\" field value is not a multiple of the minutes for each timestep: 20:46\n   **   ~~~   ** Other errors may result. Occurred in Day Schedule=SCHEDULE DAY 27\n   ** Warning ** ProcessScheduleInput: DecodeHHMMField, Invalid \"until\" field value is not a multiple of the minutes for each timestep: 22:23\n   **   ~~~   ** Other errors may result. Occurred in Day Schedule=SCHEDULE DAY 27\n   ** Warning ** ProcessScheduleInput: Schedule:Day:Interval=\"SCHEDULE DAY 28\", Blank Schedule Type Limits Name input -- will not be validated.\n   ** Warning ** ProcessScheduleInput: Schedule:Day:Interval=\"SCHEDULE DAY 29\", Blank Schedule Type Limits Name input -- will not be validated.\n   ** Warning ** ProcessScheduleInput: Schedule:Day:Interval=\"SCHEDULE DAY 3\", Blank Schedule Type Limits Name input -- will not be validated.\n   ** Warning ** ProcessScheduleInput: Schedule:Day:Interval=\"SCHEDULE DAY 30\", Blank Schedule Type Limits Name input -- will not be validated.\n   ** Warning ** ProcessScheduleInput: Schedule:Day:Interval=\"SCHEDULE DAY 31\", Blank Schedule Type Limits Name input -- will not be validated.\n   ** Warning ** ProcessScheduleInput: Schedule:Day:Interval=\"SCHEDULE DAY 32\", Blank Schedule Type Limits Name input -- will not be validated.\n   ** Warning ** ProcessScheduleInput: Schedule:Day:Interval=\"SCHEDULE DAY 33\", Blank Schedule Type Limits Name input -- will not be validated.\n   ** Warning ** ProcessScheduleInput: Schedule:Day:Interval=\"SCHEDULE DAY 4\", Blank Schedule Type Limits Name input -- will not be validated.\n   ** Warning ** ProcessScheduleInput: Schedule:Day:Interval=\"SCHEDULE DAY 5\", Blank Schedule Type Limits Name input -- will not be validated.\n   ** Warning ** ProcessScheduleInput: Schedule:Day:Interval=\"SCHEDULE DAY 6\", Blank Schedule Type Limits Name input -- will not be validated.\n   ** Warning ** ProcessScheduleInput: Schedule:Day:Interval=\"SCHEDULE DAY 7\", Blank Schedule Type Limits Name input -- will not be validated.\n   ** Warning ** ProcessScheduleInput: Schedule:Day:Interval=\"SCHEDULE DAY 8\", Blank Schedule Type Limits Name input -- will not be validated.\n   ** Warning ** ProcessScheduleInput: Schedule:Day:Interval=\"SCHEDULE DAY 9\", Blank Schedule Type Limits Name input -- will not be validated.\n   ** Warning ** ProcessScheduleInput: DecodeHHMMField, Invalid \"until\" field value is not a multiple of the minutes for each timestep: 19:09\n   **   ~~~   ** Other errors may result. Occurred in Day Schedule=SERVICE WATER LOOP TEMP - 140F DEFAULT\n   ** Warning ** ProcessScheduleInput: DecodeHHMMField, Invalid \"until\" field value is not a multiple of the minutes for each timestep: 20:46\n   **   ~~~   ** Other errors may result. Occurred in Day Schedule=SERVICE WATER LOOP TEMP - 140F DEFAULT\n   ** Warning ** ProcessScheduleInput: DecodeHHMMField, Invalid \"until\" field value is not a multiple of the minutes for each timestep: 22:23\n   **   ~~~   ** Other errors may result. Occurred in Day Schedule=SERVICE WATER LOOP TEMP - 140F DEFAULT\n   ** Warning ** ProcessScheduleInput: DecodeHHMMField, Invalid \"until\" field value is not a multiple of the minutes for each timestep: 19:09\n   **   ~~~   ** Other errors may result. Occurred in Day Schedule=WATER HEATER AMBIENT TEMP SCHEDULE - 70F DEFAULT\n   ** Warning ** ProcessScheduleInput: DecodeHHMMField, Invalid \"until\" field value is not a multiple of the minutes for each timestep: 20:46\n   **   ~~~   ** Other errors may result. Occurred in Day Schedule=WATER HEATER AMBIENT TEMP SCHEDULE - 70F DEFAULT\n   ** Warning ** ProcessScheduleInput: DecodeHHMMField, Invalid \"until\" field value is not a multiple of the minutes for each timestep: 22:23\n   **   ~~~   ** Other errors may result. Occurred in Day Schedule=WATER HEATER AMBIENT TEMP SCHEDULE - 70F DEFAULT\n   ** Warning ** ProcessScheduleInput: DecodeHHMMField, Invalid \"until\" field value is not a multiple of the minutes for each timestep: 19:09\n   **   ~~~   ** Other errors may result. Occurred in Day Schedule=WORK EFFICIENCY SCHEDULE DEFAULT\n   ** Warning ** ProcessScheduleInput: DecodeHHMMField, Invalid \"until\" field value is not a multiple of the minutes for each timestep: 20:46\n   **   ~~~   ** Other errors may result. Occurred in Day Schedule=WORK EFFICIENCY SCHEDULE DEFAULT\n   ** Warning ** ProcessScheduleInput: DecodeHHMMField, Invalid \"until\" field value is not a multiple of the minutes for each timestep: 22:23\n   **   ~~~   ** Other errors may result. Occurred in Day Schedule=WORK EFFICIENCY SCHEDULE DEFAULT\n   ** Warning ** ProcessScheduleInput: Schedule:Year=\"ECONOMIZER MAX OA FRACTION 70 PCT\", Blank Schedule Type Limits Name input -- will not be validated.\n   ** Warning ** ProcessScheduleInput: Schedule:Year=\"FRACTION LATENT - 0.05 - (SHIFTED -1.63 HOURS)\", Blank Schedule Type Limits Name input -- will not be validated.\n   ** Warning ** ProcessScheduleInput: Schedule:Year=\"FRACTION SENSIBLE - 0.2 - (SHIFTED -1.63 HOURS)\", Blank Schedule Type Limits Name input -- will not be validated.\n   ** Warning ** ProcessScheduleInput: Schedule:Year=\"MIXED WATER AT FAUCET TEMP - 120F - (SHIFTED -1.63 HOURS)\", Blank Schedule Type Limits Name input -- will not be validated.\n   ** Warning ** ProcessScheduleInput: Schedule:Year=\"RETAILSTANDALONE PSZ_ECON_MAXOAFRAC_SCH\", Blank Schedule Type Limits Name input -- will not be validated.\n   ** Warning ** ProcessScheduleInput: Schedule:Constant=\"ALWAYS OFF DISCRETE\", Blank Schedule Type Limits Name input -- will not be validated.\n   ** Warning ** ProcessScheduleInput: Schedule:Constant=\"ALWAYS ON CONTINUOUS\", Blank Schedule Type Limits Name input -- will not be validated.\n   ** Warning ** CheckUsedConstructions: There are 13 nominally unused constructions in input.\n   **   ~~~   ** For explicit details on each unused construction, use Output:Diagnostics,DisplayExtraWarnings;\n   ** Warning ** GetInternalHeatGains: People=\"OFFICE WHOLEBUILDING - SM OFFICE PEOPLE\", Activity Level Schedule Name values\n   **   ~~~   ** fall outside typical range [70,1000] W/person for Thermal Comfort Reporting.\n   **   ~~~   ** Odd comfort values may result; Schedule=\"OFFICESMALL ACTIVITY_SCH - (SHIFTED -1.63 HOURS) EXPANDED OR CONTRACTED\".\n   **   ~~~   ** Entered min/max range=[0.0,120.0] W/person.\n   ** Warning ** GetInternalHeatGains: People=\"OFFICE WHOLEBUILDING - SM OFFICE PEOPLE\" has comfort related schedules but no thermal comfort model selected.\n   **   ~~~   ** If schedules are specified for air velocity, clothing insulation, and/or work efficiency but no thermal comfort\n   **   ~~~   ** thermal comfort model is selected, the schedules will be listed as unused schedules in the .err file.\n   **   ~~~   ** To avoid these errors, select a valid thermal comfort model or eliminate these schedules in the PEOPLE input.\n   ** Warning ** GetInternalHeatGains: People=\"OFFICE WHOLEBUILDING - SM OFFICE PEOPLE\" has comfort related schedules but no thermal comfort model selected.\n   **   ~~~   ** If schedules are specified for air velocity, clothing insulation, and/or work efficiency but no thermal comfort\n   **   ~~~   ** thermal comfort model is selected, the schedules will be listed as unused schedules in the .err file.\n   **   ~~~   ** To avoid these errors, select a valid thermal comfort model or eliminate these schedules in the PEOPLE input.\n   ** Warning ** GetInternalHeatGains: People=\"OFFICE WHOLEBUILDING - SM OFFICE PEOPLE\" has comfort related schedules but no thermal comfort model selected.\n   **   ~~~   ** If schedules are specified for air velocity, clothing insulation, and/or work efficiency but no thermal comfort\n   **   ~~~   ** thermal comfort model is selected, the schedules will be listed as unused schedules in the .err file.\n   **   ~~~   ** To avoid these errors, select a valid thermal comfort model or eliminate these schedules in the PEOPLE input.\n   ** Warning ** GetInternalHeatGains: People=\"OFFICE WHOLEBUILDING - SM OFFICE PEOPLE\" has comfort related schedules but no thermal comfort model selected.\n   **   ~~~   ** If schedules are specified for air velocity, clothing insulation, and/or work efficiency but no thermal comfort\n   **   ~~~   ** thermal comfort model is selected, the schedules will be listed as unused schedules in the .err file.\n   **   ~~~   ** To avoid these errors, select a valid thermal comfort model or eliminate these schedules in the PEOPLE input.\n   ** Warning ** GetInternalHeatGains: People=\"OFFICE WHOLEBUILDING - SM OFFICE PEOPLE\" has comfort related schedules but no thermal comfort model selected.\n   **   ~~~   ** If schedules are specified for air velocity, clothing insulation, and/or work efficiency but no thermal comfort\n   **   ~~~   ** thermal comfort model is selected, the schedules will be listed as unused schedules in the .err file.\n   **   ~~~   ** To avoid these errors, select a valid thermal comfort model or eliminate these schedules in the PEOPLE input.\n   ** Warning ** GetDaylightingControls: Fraction of Zone controlled by the Daylighting reference points is < 1.0.\n   **   ~~~   ** ..discovered in \"Daylighting:Controls\" for Zone=\"PERIMETER_ZN_1 ZN\", only 0.37 of the zone is controlled.\n   ** Warning ** GetDaylightingControls: Fraction of Zone controlled by the Daylighting reference points is < 1.0.\n   **   ~~~   ** ..discovered in \"Daylighting:Controls\" for Zone=\"PERIMETER_ZN_2 ZN\", only 0.40 of the zone is controlled.\n   ** Warning ** GetDaylightingControls: Fraction of Zone controlled by the Daylighting reference points is < 1.0.\n   **   ~~~   ** ..discovered in \"Daylighting:Controls\" for Zone=\"PERIMETER_ZN_3 ZN\", only 0.37 of the zone is controlled.\n   ** Warning ** GetDaylightingControls: Fraction of Zone controlled by the Daylighting reference points is < 1.0.\n   **   ~~~   ** ..discovered in \"Daylighting:Controls\" for Zone=\"PERIMETER_ZN_4 ZN\", only 0.40 of the zone is controlled.\n   ************* Beginning Plant Sizing Calculations\n   ** Warning ** Check input. Pump nominal power or motor efficiency is set to 0, for pump=SERVICE WATER LOOP PUMP\n   ** Warning ** Output:Meter: invalid Key Name=\"HEATING:GAS\" - not found.\n   ** Warning ** Output:Meter: invalid Key Name=\"EXTERIORLIGHTING:ELECTRICITY\" - not found.\n   ** Warning ** Output:Meter: invalid Key Name=\"GAS:FACILITY\" - not found.\n   ** Warning ** Output:Meter:MeterFileOnly: invalid Key Name=\"GAS:FACILITY\" - not found.\n   ** Warning ** Output:Meter:MeterFileOnly: invalid Key Name=\"GAS:FACILITY\" - not found.\n   ** Warning ** Output:Meter:MeterFileOnly requested for \"Electricity:Facility\" (TimeStep), already on \"Output:Meter\". Will report to both eplusout.eso and eplusout.mtr\n   ************* Testing Individual Branch Integrity\n   ************* All Branches passed integrity testing\n   ************* Testing Individual Supply Air Path Integrity\n   ************* All Supply Air Paths passed integrity testing\n   ************* Testing Individual Return Air Path Integrity\n   ************* All Return Air Paths passed integrity testing\n   ************* No node connection errors were found.\n   ************* Beginning Simulation\n   ** Warning ** Processing Monthly Tabular Reports: Variable names not valid for this simulation\n   **   ~~~   ** ...use Output:Diagnostics,DisplayExtraWarnings; to show more details on individual variables.\n   ** Warning ** The resource referenced by LifeCycleCost:UsePriceEscalation= \"U.S. AVG  COMMERCIAL-ELECTRICITY\" has no energy cost. \n   **   ~~~   ** ... It is likely that the wrong resource is used. The resource should match the meter used in Utility:Tariff.\n   ** Warning ** The resource referenced by LifeCycleCost:UsePriceEscalation= \"U.S. AVG  COMMERCIAL-DISTILLATE OIL\" has no energy cost. \n   **   ~~~   ** ... It is likely that the wrong resource is used. The resource should match the meter used in Utility:Tariff.\n   ** Warning ** The resource referenced by LifeCycleCost:UsePriceEscalation= \"U.S. AVG  COMMERCIAL-RESIDUAL OIL\" has no energy cost. \n   **   ~~~   ** ... It is likely that the wrong resource is used. The resource should match the meter used in Utility:Tariff.\n   ** Warning ** The resource referenced by LifeCycleCost:UsePriceEscalation= \"U.S. AVG  COMMERCIAL-NATURAL GAS\" has no energy cost. \n   **   ~~~   ** ... It is likely that the wrong resource is used. The resource should match the meter used in Utility:Tariff.\n   ** Warning ** The resource referenced by LifeCycleCost:UsePriceEscalation= \"U.S. AVG  COMMERCIAL-COAL\" has no energy cost. \n   **   ~~~   ** ... It is likely that the wrong resource is used. The resource should match the meter used in Utility:Tariff.\n   ************* Simulation Error Summary *************\n   ************* There are 12 unused schedules in input.\n   ************* There are 12 unused week schedules in input.\n   ************* There are 50 unused day schedules in input.\n   ************* Use Output:Diagnostics,DisplayUnusedSchedules; to see them.\n   *************\n   ************* ===== Recurring Error Summary =====\n   ************* The following recurring error messages occurred.\n   *************\n   *************  ** Warning ** Plant loop exceeding upper temperature limit, PlantLoop=\"MAIN SERVICE WATER LOOP\"\n   *************  **   ~~~   **   This error occurred 44106 total times;\n   *************  **   ~~~   **   during Warmup 0 times;\n   *************  **   ~~~   **   during Sizing 0 times.\n   *************  **   ~~~   **   Max=82.222222\n   *************\n   *************\n   ************* ===== Final Error Summary =====\n   ************* The following error categories occurred.  Consider correcting or noting.\n   ************* Nominally Unused Constructions\n   ************* ..The nominally unused constructions warning is provided to alert you to potential conditions that can cause\n   ************* ..extra time during simulation. Each construction is calculated by the algorithm indicated in the HeatBalanceAlgorithm\n   ************* ..object. You may remove the constructions indicated (when you use the DisplayExtraWarnings option).\n   *************\n   ************* EnergyPlus Warmup Error Summary. During Warmup: 0 Warning; 0 Severe Errors.\n   ************* EnergyPlus Sizing Error Summary. During Sizing: 190 Warning; 0 Severe Errors.\n   ************* EnergyPlus Completed Successfully-- 44310 Warning; 0 Severe Errors; Elapsed Time=00hr 00min 12.29sec\n",
   "file_format_version" : "0.0.1",
   "file_paths" : [
      "/mnt/openstudio/analysis_489db9b0-7cc1-41f8-800f-6aa50d791e0b/data_point_94f04594-e835-4125-87e9-98d44c174ee6/generated_files",
      "../weather",
      "../seeds",
      "../seed",
      "./files",
      "./weather",
      "../../files",
      "../../weather",
      "./"
   ],
   "hash" : "893B86FA",
   "measure_paths" : [ "../measures" ],
   "name" : "LHS Autogenerated 106",
   "osa_id" : "489db9b0-7cc1-41f8-800f-6aa50d791e0b",
   "osd_id" : "94f04594-e835-4125-87e9-98d44c174ee6",
   "run_directory" : "./run",
   "seed_file" : "example_model.osm",
   "started_at" : "20201116T025255Z",
   "steps" : [
      {
         "arguments" : {
            "building_type" : "SmallOffice",
            "template" : "90.1-2010",
            "weather_file_name" : "USA_CO_Golden-NREL.724666_TMY3.epw"
         },
         "description" : "Change the building location",
         "measure_dir_name" : "ambient_loop_prototype_building_by_location",
         "name" : "ambient_loop_prototype_building_by_location",
         "result" : {
            "completed_at" : "20201116T025324Z",
            "measure_class_name" : "AmbientLoopPrototypeBuildingByLocation",
            "measure_display_name" : "Ambient Loop Prototype Building By Location",
            "measure_name" : "ambient_loop_prototype_building_by_location",
            "measure_taxonomy" : "Whole Building.Space Types",
            "measure_type" : "ModelMeasure",
            "measure_uid" : "eed65df5-3517-44d5-8ecd-35631aadcc24",
            "measure_version_id" : "bd20e599-c8d0-43a5-bb0f-4f9c10e715f7",
            "measure_version_modified" : "20201116T032206Z",
            "measure_xml_checksum" : "2C38F48B",
            "started_at" : "20201116T025303Z",
            "stderr" : "",
            "stdout" : "[openstudio.model.YearDescription] <1> 'UseWeatherFile' is not yet a supported option for YearDescription\n[openstudio.model.YearDescription] <1> 'UseWeatherFile' is not yet a supported option for YearDescription\n[openstudio.model.YearDescription] <1> 'UseWeatherFile' is not yet a supported option for YearDescription\n[openstudio.model.YearDescription] <1> 'UseWeatherFile' is not yet a supported option for YearDescription\n",
            "step_errors" : [],
            "step_files" : [
               "/mnt/openstudio/analysis_489db9b0-7cc1-41f8-800f-6aa50d791e0b/data_point_94f04594-e835-4125-87e9-98d44c174ee6/run/000_ambient_loop_prototype_building_by_location/final.osm"
            ],
            "step_final_condition" : "The final weather file is Denver Centennial  Golden   Nr and the model has 3 design day objects.",
            "step_info" : [
               "Found run dir to be models",
               "Model replaced.",
               "city is Denver Centennial  Golden   Nr. State is CO",
               "mean dry bulb is 9.7",
               "Adding object Denver Centennial  Golden   N Ann Clg .4% Condns WB=>MDB",
               "Adding object Denver Centennial  Golden   N Ann Htg 99.6% Condns DB",
               "Adding object Denver Centennial  Golden   N Ann Clg .4% Condns DB=>MWB",
               "Setting Climate Zone to 5B"
            ],
            "step_result" : "Success",
            "step_values" : [
               {
                  "name" : "building_type",
                  "value" : "SmallOffice"
               },
               {
                  "name" : "template",
                  "value" : "90.1-2010"
               },
               {
                  "name" : "weather_file_name",
                  "value" : "USA_CO_Golden-NREL.724666_TMY3.epw"
               }
            ],
            "step_warnings" : []
         }
      },
      {
         "arguments" : {},
         "description" : "Apply an ETS system to a model",
         "measure_dir_name" : "ambient_loop_add_ets_system",
         "name" : "ambient_loop_add_ets_system",
         "result" : {
            "completed_at" : "20201116T025325Z",
            "measure_class_name" : "AmbientLoopAddEtsSystem",
            "measure_display_name" : "Ambient Loop Add ETS System",
            "measure_name" : "ambient_loop_add_ets_system",
            "measure_taxonomy" : "Whole Building.Space Types",
            "measure_type" : "ModelMeasure",
            "measure_uid" : "ef83af59-3005-4d3e-9477-6de226168580",
            "measure_version_id" : "733aedca-4edf-471b-82a0-fa8de0a5265b",
            "measure_version_modified" : "20181206T144045Z",
            "measure_xml_checksum" : "2C38F48B",
            "started_at" : "20201116T025324Z",
            "stderr" : "",
            "stdout" : "",
            "step_errors" : [],
            "step_files" : [],
            "step_info" : [ "Removing existing HVAC equipment" ],
            "step_result" : "Success",
            "step_values" : [],
            "step_warnings" : []
         }
      },
      {
         "arguments" : {
            "design_delta" : 4.4108605493623756,
            "setpoint_temperature" : 24.482046984362725
         },
         "description" : "Set the temperature of the ambient loop to a specific value.",
         "measure_dir_name" : "ambient_loop_temperature_setpoint",
         "name" : "ambient_loop_temperature_setpoint",
         "result" : {
            "completed_at" : "20201116T025325Z",
            "measure_class_name" : "AmbientLoopTemperatureSetpoint",
            "measure_display_name" : "Ambient Loop Temperature Setpoint",
            "measure_name" : "ambient_loop_temperature_setpoint",
            "measure_taxonomy" : "HVAC.Heating",
            "measure_type" : "ModelMeasure",
            "measure_uid" : "b7cf0cbd-f752-4e43-9c9c-62705a3b7613",
            "measure_version_id" : "db323978-64d0-419f-8e71-4df40b83b226",
            "measure_version_modified" : "20190304T072810Z",
            "measure_xml_checksum" : "1F3D2430",
            "started_at" : "20201116T025325Z",
            "stderr" : "",
            "stdout" : "",
            "step_errors" : [],
            "step_files" : [],
            "step_final_condition" : "The final maximum loop temperature is: 24.482046984362725",
            "step_info" : [],
            "step_result" : "Success",
            "step_values" : [
               {
                  "name" : "setpoint_temperature",
                  "value" : 24.482046984362725
               },
               {
                  "name" : "design_delta",
                  "value" : 4.4108605493623756
               }
            ],
            "step_warnings" : []
         }
      },
      {
         "arguments" : {
            "hot_water_temperature" : 60
         },
         "description" : "Set the design temperature of the Hot Water Loop to the specified value.",
         "measure_dir_name" : "hot_water_loop_design_temperature",
         "name" : "hot_water_loop_design_temperature",
         "result" : {
            "completed_at" : "20201116T025325Z",
            "measure_class_name" : "HotWaterLoopDesignTemperature",
            "measure_display_name" : "Hot Water Loop Design Temperature",
            "measure_name" : "hot_water_loop_design_temperature",
            "measure_taxonomy" : "HVAC.Heating",
            "measure_type" : "ModelMeasure",
            "measure_uid" : "c4674445-7dad-4ba9-8b06-11028fd76904",
            "measure_version_id" : "b1c318f6-c194-4914-9031-1642fecc8000",
            "measure_version_modified" : "20180927T020350Z",
            "measure_xml_checksum" : "1F3D2430",
            "started_at" : "20201116T025325Z",
            "stderr" : "",
            "stdout" : "",
            "step_errors" : [],
            "step_files" : [],
            "step_final_condition" : "Hot water loop design temperature ended with 60.0",
            "step_info" : [],
            "step_initial_condition" : "Hot water loop design temperature started with 24.4820469843627",
            "step_result" : "Success",
            "step_values" : [
               {
                  "name" : "hot_water_temperature",
                  "value" : 60
               }
            ],
            "step_warnings" : []
         }
      },
      {
         "arguments" : {},
         "description" : "Removes all doors from building envelope.",
         "measure_dir_name" : "remove_all_doors",
         "name" : "remove_all_doors",
         "result" : {
            "completed_at" : "20201116T025325Z",
            "measure_class_name" : "RemoveAllDoors",
            "measure_display_name" : "Remove All Doors",
            "measure_name" : "remove_all_doors",
            "measure_taxonomy" : "Envelope.Opaque",
            "measure_type" : "ModelMeasure",
            "measure_uid" : "2248ab73-e210-4c44-85cc-d18c39fe50f5",
            "measure_version_id" : "e640c8f0-a752-45be-a878-364e98bbea21",
            "measure_version_modified" : "20190102T133047Z",
            "measure_xml_checksum" : "8296E2DB",
            "started_at" : "20201116T025325Z",
            "stderr" : "",
            "stdout" : "",
            "step_errors" : [],
            "step_files" : [],
            "step_final_condition" : "A total of 1 were removed from the building envelope.",
            "step_info" : [],
            "step_result" : "Success",
            "step_values" : [],
            "step_warnings" : []
         }
      },
      {
         "arguments" : {
            "sillHeight" : 30,
            "wwr" : 0.4497541278935504
         },
         "description" : "Set the window to wall ratio for all facades to a specific value.",
         "measure_dir_name" : "set_window_to_wall_ratio",
         "name" : "set_window_to_wall_ratio",
         "result" : {
            "completed_at" : "20201116T025325Z",
            "measure_class_name" : "SetWindowToWallRatio",
            "measure_display_name" : "Set Window to Wall Ratio",
            "measure_name" : "set_window_to_wall_ratio",
            "measure_taxonomy" : "Envelope.Fenestration",
            "measure_type" : "ModelMeasure",
            "measure_uid" : "73ac3246-3170-4853-bed9-0ca14ea7981c",
            "measure_version_id" : "68a81245-27ce-408c-9b30-59f84f44555d",
            "measure_version_modified" : "20190304T073737Z",
            "measure_xml_checksum" : "7308DE72",
            "started_at" : "20201116T025325Z",
            "stderr" : "",
            "stdout" : "",
            "step_errors" : [],
            "step_files" : [],
            "step_final_condition" : "The model's final window to wall ratio for the exterior walls is 0.45. Window area increased by 762 (ft^2). The material and construction costs increased by $0.",
            "step_info" : [],
            "step_initial_condition" : "The model's initial window to wall ratio for the exterior walls was 0.20.",
            "step_result" : "Success",
            "step_values" : [
               {
                  "name" : "wwr",
                  "value" : 0.4497541278935504
               },
               {
                  "name" : "sillHeight",
                  "value" : 30
               }
            ],
            "step_warnings" : []
         }
      },
      {
         "arguments" : {
            "roof_r" : 50.90056425187116
         },
         "description" : "Set the R-Value of roof insulation to a specified value.  Higher R-Values provide better insulation, lowering heat loss and heat gain through the roof.",
         "measure_dir_name" : "set_roof_insulation_r_value",
         "name" : "set_roof_insulation_r_value",
         "result" : {
            "completed_at" : "20201116T025325Z",
            "measure_class_name" : "SetRoofInsulationRValue",
            "measure_display_name" : "Set Roof Insulation R Value",
            "measure_name" : "set_roof_insulation_r_value",
            "measure_taxonomy" : "Envelope.Opaque",
            "measure_type" : "ModelMeasure",
            "measure_uid" : "65b798f4-207f-4aed-987a-386c865d0ccd",
            "measure_version_id" : "8fce54b6-4076-4a7a-9390-848187f0ff03",
            "measure_version_modified" : "20190325T231741Z",
            "measure_xml_checksum" : "0F858D9E",
            "started_at" : "20201116T025325Z",
            "stderr" : "",
            "stdout" : "",
            "step_errors" : [],
            "step_files" : [],
            "step_final_condition" : "The existing insulation for roofs was changed to R-50.90056425187116. This was applied to 6,445 (ft^2) across 1 roof constructions: Typical IEAD Roof R-20.83 adj roof insulation (R-51.2).",
            "step_info" : [
               "For construction'Typical IEAD Roof R-20.83 adj roof insulation', material'Typical Insulation R-19.72_R-value 50.90056425187116 (ft^2*h*R/Btu)' was altered."
            ],
            "step_initial_condition" : "The building had 1 roof constructions: Typical IEAD Roof R-20.83 (R-20.1).",
            "step_result" : "Success",
            "step_values" : [
               {
                  "name" : "roof_r",
                  "value" : 50.90056425187116
               }
            ],
            "step_warnings" : []
         }
      },
      {
         "arguments" : {
            "wall_r" : 55.736355070884883
         },
         "description" : "Set the R-Value of exterior wall insulation to a specified value.  Higher R-Values provide better insulation, lowering heat loss and heat gain through the exterior walls.",
         "measure_dir_name" : "set_exterior_wall_insulation_r_value",
         "name" : "set_exterior_wall_insulation_r_value",
         "result" : {
            "completed_at" : "20201116T025325Z",
            "measure_class_name" : "SetExteriorWallInsulationRValue",
            "measure_display_name" : "Set Exterior Wall Insulation R Value",
            "measure_name" : "set_exterior_wall_insulation_r_value",
            "measure_taxonomy" : "Envelope.Opaque",
            "measure_type" : "ModelMeasure",
            "measure_uid" : "3fdf9c39-d305-449b-a4b5-077166af5a67",
            "measure_version_id" : "ad2ad825-b9ef-463c-aa25-fde1b5492e05",
            "measure_version_modified" : "20190325T230255Z",
            "measure_xml_checksum" : "0F858D9E",
            "started_at" : "20201116T025325Z",
            "stderr" : "",
            "stdout" : "",
            "step_errors" : [],
            "step_files" : [],
            "step_final_condition" : "The existing insulation for exterior walls was set to R-55.73635507088488. This was applied to 1,667 (ft^2) across 1 exterior wall constructions: Typical Insulated Exterior Mass Wall R-11.11 adj ext wall insulation (R-57.3).",
            "step_info" : [
               "For construction'Typical Insulated Exterior Mass Wall R-11.11 adj ext wall insulation', material'Typical Insulation R-8.72_R-value 55.73635507088488 (ft^2*h*R/Btu)' was altered."
            ],
            "step_initial_condition" : "The building had 1 exterior wall constructions: Typical Insulated Exterior Mass Wall R-11.11 (R-10.3).",
            "step_result" : "Success",
            "step_values" : [
               {
                  "name" : "wall_r",
                  "value" : 55.736355070884883
               }
            ],
            "step_warnings" : [
               "The requested wall insulation R-value of 55.73635507088488 ft^2*h*R/Btu is abnormally high."
            ]
         }
      },
      {
         "arguments" : {
            "heat_cop" : 4.2284271316696929
         },
         "description" : "Set heat pump heating coil gross rated COP.",
         "measure_dir_name" : "set_heat_pump_heating_coil_rated_cop",
         "name" : "set_heat_pump_heating_coil_rated_cop",
         "result" : {
            "completed_at" : "20201116T025326Z",
            "measure_class_name" : "SetHeatPumpHeatingCoilRatedCop",
            "measure_display_name" : "Set Heat Pump Heating Coil Rated COP",
            "measure_name" : "set_heat_pump_heating_coil_rated_cop",
            "measure_taxonomy" : "HVAC.Cooling",
            "measure_type" : "ModelMeasure",
            "measure_uid" : "550419ad-c73a-4e5f-b7b0-ab3768584ce4",
            "measure_version_id" : "f1b401f4-eea5-43b2-aa6e-5e9f56b3d527",
            "measure_version_modified" : "20190308T074955Z",
            "measure_xml_checksum" : "8CBDDA1B",
            "started_at" : "20201116T025326Z",
            "stderr" : "",
            "stdout" : "",
            "step_errors" : [],
            "step_files" : [],
            "step_info" : [],
            "step_result" : "Success",
            "step_values" : [
               {
                  "name" : "heat_cop",
                  "value" : 4.2284271316696929
               }
            ],
            "step_warnings" : []
         }
      },
      {
         "arguments" : {
            "cool_cop" : 4.1540092491173999
         },
         "description" : "Set heat pump cooling coil gross rated COP.",
         "measure_dir_name" : "set_heat_pump_cooling_coil_rated_cop",
         "name" : "set_heat_pump_cooling_coil_rated_cop",
         "result" : {
            "completed_at" : "20201116T025326Z",
            "measure_class_name" : "SetHeatPumpCoolingCoilRatedCop",
            "measure_display_name" : "Set Heat Pump Cooling Coil Rated COP",
            "measure_name" : "set_heat_pump_cooling_coil_rated_cop",
            "measure_taxonomy" : "HVAC.Cooling",
            "measure_type" : "ModelMeasure",
            "measure_uid" : "9d74eeb6-9557-4d83-a96a-c5b8bfa1b6d2",
            "measure_version_id" : "e6c8a742-1e31-439e-8aaa-29726fd1c3ad",
            "measure_version_modified" : "20190308T074955Z",
            "measure_xml_checksum" : "8CBDDA1B",
            "started_at" : "20201116T025326Z",
            "stderr" : "",
            "stdout" : "",
            "step_errors" : [],
            "step_files" : [],
            "step_info" : [],
            "step_result" : "Success",
            "step_values" : [
               {
                  "name" : "cool_cop",
                  "value" : 4.1540092491173999
               }
            ],
            "step_warnings" : []
         }
      },
      {
         "arguments" : {
            "epd_multiplier" : 0.97044844739088565,
            "lpd_multiplier" : 2.9621569918376558,
            "people_per_floor_area_multiplier" : 1
         },
         "description" : "Multipliers for LPD, EPD, and people densities.",
         "measure_dir_name" : "internal_loads_multiplier",
         "name" : "internal_loads_multiplier",
         "result" : {
            "completed_at" : "20201116T025326Z",
            "measure_class_name" : "InternalLoadsMultiplier",
            "measure_display_name" : "Internal Loads Multiplier",
            "measure_name" : "internal_loads_multiplier",
            "measure_taxonomy" : "Whole Building.Space Types",
            "measure_type" : "ModelMeasure",
            "measure_uid" : "8c10b18d-c66d-43dc-9ef5-b82dfed0edde",
            "measure_version_id" : "8b9e078c-393a-44ad-a57b-c616827f0271",
            "measure_version_modified" : "20180927T020345Z",
            "measure_xml_checksum" : "2C38F48B",
            "started_at" : "20201116T025326Z",
            "stderr" : "",
            "stdout" : "",
            "step_errors" : [],
            "step_files" : [],
            "step_info" : [],
            "step_result" : "Success",
            "step_values" : [
               {
                  "name" : "lpd_multiplier",
                  "value" : 2.9621569918376558
               },
               {
                  "name" : "epd_multiplier",
                  "value" : 0.97044844739088565
               },
               {
                  "name" : "people_per_floor_area_multiplier",
                  "value" : 1
               },
               {
                  "name" : "lpd_average",
                  "units" : "W/m2",
                  "value" : 28.695953250333801
               },
               {
                  "name" : "epd_average",
                  "units" : "W/m2",
                  "value" : 6.5808666956028299
               },
               {
                  "name" : "ppl_average",
                  "units" : "People/m2",
                  "value" : 0.060277898333574401
               }
            ],
            "step_warnings" : []
         }
      },
      {
         "arguments" : {
            "dist" : "Uniform",
            "schedule" : "*All Ruleset Schedules*",
            "shift_ct" : 0,
            "shift_ll" : -2,
            "shift_ul" : 2
         },
         "description" : "Shift a single or all schedules in the building by the specified number of hours",
         "measure_dir_name" : "shift_schedule_profile_time",
         "name" : "shift_schedule_profile_time",
         "result" : {
            "completed_at" : "20201116T025326Z",
            "measure_class_name" : "ShiftScheduleProfileTime",
            "measure_display_name" : "Shift Schedule Profile Time",
            "measure_name" : "shift_schedule_profile_time",
            "measure_taxonomy" : "Whole Building.Whole Building Schedules",
            "measure_type" : "ModelMeasure",
            "measure_uid" : "1c642348-f074-4ad1-98ee-2208ddc89ac7",
            "measure_version_id" : "26b0598a-8619-4a81-95d7-e4a753614b5e",
            "measure_version_modified" : "20190308T074955Z",
            "measure_xml_checksum" : "B6CD1F98",
            "started_at" : "20201116T025326Z",
            "stderr" : "",
            "stdout" : "",
            "step_errors" : [],
            "step_files" : [],
            "step_final_condition" : "Shifted time for all profiles for all schedules.",
            "step_info" : [
               "Adjusting Ambient Loop Temperature Ruleset - (shifted -1.63 hours)",
               "Adjusting OfficeSmall Exterior_lighting_schedule_a - (shifted -1.63 hours)",
               "Adjusting OfficeSmall Exterior_lighting_schedule_b - (shifted -1.63 hours)",
               "Adjusting OfficeSmall HTGSETP_SCH_NO_OPTIMUM - (shifted -1.63 hours)",
               "Adjusting OfficeSmall BLDG_LIGHT_SCH - (shifted -1.63 hours)",
               "Adjusting OfficeSmall ACTIVITY_SCH - (shifted -1.63 hours)",
               "Adjusting OfficeSmall INFIL_QUARTER_ON_SCH - (shifted -1.63 hours)",
               "Adjusting OfficeSmall BLDG_OCC_SCH - (shifted -1.63 hours)",
               "Adjusting OfficeSmall BLDG_SWH_SCH - (shifted -1.63 hours)",
               "Adjusting OfficeSmall CLGSETP_SCH_NO_OPTIMUM - (shifted -1.63 hours)",
               "Adjusting OfficeSmall BLDG_EQUIP_SCH - (shifted -1.63 hours)",
               "Adjusting Air Velocity Schedule - (shifted -1.63 hours)",
               "Adjusting Clothing Schedule - (shifted -1.63 hours)",
               "Adjusting Work Efficiency Schedule - (shifted -1.63 hours)",
               "Adjusting OfficeSmall HVACOperationSchd - (shifted -1.63 hours)",
               "Adjusting OfficeSmall MinOA_MotorizedDamper_Sched - (shifted -1.63 hours)",
               "Adjusting Service Water Loop Temp - 140F - (shifted -1.63 hours)",
               "Adjusting OfficeLarge INFIL_SCH_PNNL - (shifted -1.63 hours)",
               "Adjusting Water Heater Ambient Temp Schedule - 70F - (shifted -1.63 hours)",
               "Adjusting Fraction Sensible - 0.2 - (shifted -1.63 hours)",
               "Adjusting Mixed Water At Faucet Temp - 120F - (shifted -1.63 hours)",
               "Adjusting Fraction Latent - 0.05 - (shifted -1.63 hours)"
            ],
            "step_initial_condition" : "22 schedules are used in this model.",
            "step_result" : "Success",
            "step_values" : [
               {
                  "name" : "schedule",
                  "value" : "{6b25c3c7-39e4-4be7-84a9-17e80feecaf5}"
               },
               {
                  "name" : "dist",
                  "value" : "Uniform"
               },
               {
                  "name" : "shift_ll",
                  "value" : -2
               },
               {
                  "name" : "shift_ul",
                  "value" : 2
               },
               {
                  "name" : "shift_ct",
                  "value" : 0
               }
            ],
            "step_warnings" : []
         }
      },
      {
         "arguments" : {
            "new_end" : 18,
            "new_start" : 8,
            "schedule" : "*All Ruleset Schedules*"
         },
         "description" : "Expand or contract schedule profile by specifying new start and end times. The schedule profile shape is preserved.",
         "measure_dir_name" : "set_schedule_profile_start_end_times",
         "name" : "set_schedule_profile_start_end_times",
         "result" : {
            "completed_at" : "20201116T025327Z",
            "measure_class_name" : "SetScheduleProfileStartEndTimes",
            "measure_display_name" : "Set Schedule Profile Start End Times",
            "measure_name" : "set_schedule_profile_start_end_times",
            "measure_taxonomy" : "Whole Building.Whole Building Schedules",
            "measure_type" : "ModelMeasure",
            "measure_uid" : "d7477df5-e482-44be-9be5-fe9875013229",
            "measure_version_id" : "ade842ca-0fe8-43b6-9c85-6479491ca0b9",
            "measure_version_modified" : "20190322T194434Z",
            "measure_xml_checksum" : "03F02484",
            "started_at" : "20201116T025326Z",
            "stderr" : "",
            "stdout" : "",
            "step_errors" : [],
            "step_files" : [],
            "step_final_condition" : "Expanded or contracted profiles for all schedules.",
            "step_info" : [
               "The new schedule duration is 10",
               "Adjusting OfficeSmall BLDG_LIGHT_SCH - (shifted -1.63 hours) Expanded or Contracted",
               "Cupcake 0",
               "Cupcake 0",
               "Cupcake 0",
               "Cupcake 0",
               "Cupcake 0",
               "Adjusting OfficeSmall ACTIVITY_SCH - (shifted -1.63 hours) Expanded or Contracted",
               "Cupcake 0",
               "Cupcake 0",
               "Cupcake 0",
               "Adjusting OfficeSmall BLDG_OCC_SCH - (shifted -1.63 hours) Expanded or Contracted",
               "Cupcake 0",
               "Cupcake 0",
               "Cupcake 0",
               "Cupcake 0",
               "Adjusting OfficeSmall BLDG_EQUIP_SCH - (shifted -1.63 hours) Expanded or Contracted",
               "Cupcake 0",
               "Cupcake 0",
               "Cupcake 0",
               "Cupcake 0",
               "Cupcake 0"
            ],
            "step_initial_condition" : "4 schedules are used in this model.",
            "step_result" : "Success",
            "step_values" : [
               {
                  "name" : "schedule",
                  "value" : "{6b25c3c7-39e4-4be7-84a9-17e80feecaf5}"
               },
               {
                  "name" : "new_start",
                  "value" : 8
               },
               {
                  "name" : "new_end",
                  "value" : 18
               }
            ],
            "step_warnings" : []
         }
      },
      {
         "arguments" : {
            "air_loops_detail_section" : true,
            "annual_overview_section" : true,
            "building_summary_section" : true,
            "cost_summary_section" : true,
            "envelope_section_section" : true,
            "exterior_light_section" : true,
            "hvac_load_profile" : true,
            "interior_lighting_section" : true,
            "monthly_overview_section" : true,
            "outdoor_air_section" : true,
            "plant_loops_detail_section" : true,
            "plug_loads_section" : true,
            "schedules_overview_section" : true,
            "source_energy_section" : true,
            "space_type_breakdown_section" : true,
            "space_type_details_section" : true,
            "utility_bills_rates_section" : true,
            "water_use_section" : true,
            "zone_condition_section" : true,
            "zone_equipment_detail_section" : true,
            "zone_summary_section" : true
         },
         "description" : "This measure creates high level tables and charts pulling both from model inputs and EnergyPlus results. It has building level information as well as detail on space types, thermal zones, HVAC systems, envelope characteristics, and economics. Click the heading above a chart to view a table of the chart data.",
         "measure_dir_name" : "openstudio_results",
         "name" : "openstudio_results",
         "result" : {
            "completed_at" : "20201116T025353Z",
            "measure_class_name" : "OpenStudioResults",
            "measure_display_name" : "OpenStudio Results",
            "measure_name" : "openstudio_results",
            "measure_taxonomy" : "Reporting.QAQC",
            "measure_type" : "ReportingMeasure",
            "measure_uid" : "a25386cd-60e4-46bc-8b11-c755f379d916",
[...]
                  "units" : "MBtu",
                  "value" : 0
               },
               {
                  "name" : "water_exterior_lighting_ip",
                  "units" : "MBtu",
                  "value" : 0
               },
               {
                  "name" : "water_interior_equipment_ip",
                  "units" : "MBtu",
                  "value" : 0
               },
               {
                  "name" : "water_exterior_equipment_ip",
                  "units" : "MBtu",
                  "value" : 0
               },
               {
                  "name" : "water_fans_ip",
                  "units" : "MBtu",
                  "value" : 0
               },
               {
                  "name" : "water_pumps_ip",
                  "units" : "MBtu",
                  "value" : 0
               },
               {
                  "name" : "water_heat_rejection_ip",
                  "units" : "MBtu",
                  "value" : 0
               },
               {
                  "name" : "water_humidification_ip",
                  "units" : "MBtu",
                  "value" : 0
               },
               {
                  "name" : "water_heat_recovery_ip",
                  "units" : "MBtu",
                  "value" : 0
               },
               {
                  "name" : "water_water_systems_ip",
                  "units" : "MBtu",
                  "value" : 0
               },
               {
                  "name" : "water_refrigeration_ip",
                  "units" : "MBtu",
                  "value" : 0
               },
               {
                  "name" : "water_generators_ip",
                  "units" : "MBtu",
                  "value" : 0
               },
               {
                  "name" : "water_ip",
                  "units" : "MBtu",
                  "value" : 0
               },
               {
                  "name" : "typical_iead_roof_r_20_83_adj_roof_insulation",
                  "units" : "ft^2",
                  "value" : 6445.0170971784091
               },
               {
                  "name" : "typical_insulated_exterior_mass_floor_r_13_51",
                  "units" : "ft^2",
                  "value" : 611.6053898774453
               },
               {
                  "name" : "typical_insulated_exterior_mass_wall_r_11_11_adj_ext_wall_insulation",
                  "units" : "ft^2",
                  "value" : 1667.3562747359717
               },
               {
                  "name" : "u_0_52_shgc_0_40_dbl_ref_d_clr_6_mm_13_mm_air",
                  "units" : "ft^2",
                  "value" : 1362.8459662240653
               },
               {
                  "name" : "gross_window_wall_ratio",
                  "units" : "%",
                  "value" : 44.979999999999997
               },
               {
                  "name" : "gross_window_wall_ratio_conditioned",
                  "units" : "%",
                  "value" : 44.979999999999997
               },
               {
                  "name" : "skylight_roof_ratio",
                  "units" : "%",
                  "value" : 0
               },
               {
                  "name" : "space_type_office_attic",
                  "units" : "ft^2",
                  "value" : 0
               },
               {
                  "name" : "space_type_office_whole_building_sm_office",
                  "units" : "ft^2",
                  "value" : 5502.0524624382588
               },
               {
                  "name" : "exterior_lighting_total_power",
                  "units" : "W",
                  "value" : 936.61000000000001
               },
               {
                  "name" : "exterior_lighting_total_consumption",
                  "units" : "kWh",
                  "value" : 70344.444444444453
               },
               {
                  "name" : "main_service_water_use_0_06_gal_min",
                  "units" : "gal/min",
                  "value" : 0.063999999999999974
               },
               {
                  "name" : "inflation_approach",
                  "value" : "Constant Dollar"
               },
               {
                  "name" : "analysis_length",
                  "units" : "yrs",
                  "value" : 25
               },
               {
                  "name" : "annual_peak_electric_demand",
                  "units" : "kW",
                  "value" : 16.069680000000002
               },
               {
                  "name" : "first_year_capital_cost",
                  "units" : "$",
                  "value" : 0
               },
               {
                  "name" : "annual_utility_cost",
                  "units" : "$",
                  "value" : 0
               },
               {
                  "name" : "total_lifecycle_cost",
                  "units" : "$",
                  "value" : 0
               }
            ],
            "step_warnings" : []
         }
      },
      {
         "arguments" : {
            "check_domestic_hot_water" : true,
            "check_domestic_hot_water_tol" : 0.25,
            "check_envelope_conductance" : true,
            "check_envelope_conductance_tol" : 0.10000000000000001,
            "check_eui_by_end_use" : true,
            "check_eui_by_end_use_tol" : 0.25,
            "check_eui_reasonableness" : true,
            "check_eui_reasonableness_tol" : 0.10000000000000001,
            "check_internal_loads" : true,
            "check_internal_loads_tol" : 0.10000000000000001,
            "check_mech_sys_capacity" : true,
            "check_mech_sys_efficiency" : true,
            "check_mech_sys_efficiency_tol" : 0.10000000000000001,
            "check_mech_sys_part_load_eff" : true,
            "check_mech_sys_part_load_eff_tol" : 0.050000000000000003,
            "check_mech_sys_type" : true,
            "check_schedules" : true,
            "check_schedules_tol" : 0.050000000000000003,
            "check_simultaneous_heating_and_cooling" : true,
            "check_simultaneous_heating_and_cooling_max_tol" : 0.050000000000000003,
            "check_supply_air_and_thermostat_temp_difference" : true,
            "check_supply_air_and_thermostat_temp_difference_tol" : 0.5,
            "template" : "90.1-2013"
         },
         "description" : "This measure extracts key simulation results and performs basic model QAQC checks. Each category of checks provides a description of the source of the check. In some cases the target standards and tollerances are adjustable.",
         "measure_dir_name" : "generic_qaqc",
         "name" : "generic_qaqc",
         "result" : {
            "completed_at" : "20201116T025358Z",
            "measure_class_name" : "GenericQAQC",
            "measure_display_name" : "Generic QAQC",
            "measure_name" : "generic_qaqc",
            "measure_taxonomy" : "Reporting.QAQC",
            "measure_type" : "ReportingMeasure",
            "measure_uid" : "d58d6b29-69ba-4915-b907-3c2c37ddb7c7",
            "measure_version_id" : "c3a65f4b-fe7d-4349-960d-bb4b1fe3e0d1",
            "measure_version_modified" : "20170510T043335Z",
            "measure_xml_checksum" : "0A3BF61C",
            "started_at" : "20201116T025353Z",
            "stderr" : "",
            "stdout" : "[openstudio.model.YearDescription] <1> 'UseWeatherFile' is not yet a supported option for YearDescription\n[openstudio.model.YearDescription] <1> 'UseWeatherFile' is not yet a supported option for YearDescription\n",
            "step_errors" : [],
            "step_files" : [
               "/mnt/openstudio/analysis_489db9b0-7cc1-41f8-800f-6aa50d791e0b/data_point_94f04594-e835-4125-87e9-98d44c174ee6/run/014_generic_qaqc/report.xml",
               "/mnt/openstudio/analysis_489db9b0-7cc1-41f8-800f-6aa50d791e0b/data_point_94f04594-e835-4125-87e9-98d44c174ee6/run/014_generic_qaqc/report.html"
            ],
            "step_final_condition" : "Finished generating report.xml.",
            "step_info" : [
               "Mechanical System Part Load Efficiency - no flags.",
               "Mechanical System Capacity - no flags.",
               "Simultaneous Heating and Cooling - no flags."
            ],
            "step_initial_condition" : "Starting QAQC report generation",
            "step_result" : "Success",
            "step_values" : [
               {
                  "name" : "template",
                  "value" : "90.1-2013"
               },
               {
                  "name" : "check_eui_reasonableness",
                  "value" : true
               },
               {
                  "name" : "check_eui_reasonableness_tol",
                  "value" : 0.10000000000000001
               },
               {
                  "name" : "check_eui_by_end_use",
                  "value" : true
               },
               {
                  "name" : "check_eui_by_end_use_tol",
                  "value" : 0.25
               },
               {
                  "name" : "check_mech_sys_part_load_eff",
                  "value" : true
               },
               {
                  "name" : "check_mech_sys_part_load_eff_tol",
                  "value" : 0.050000000000000003
               },
               {
                  "name" : "check_mech_sys_capacity",
                  "value" : true
               },
               {
                  "name" : "check_simultaneous_heating_and_cooling",
                  "value" : true
               },
               {
                  "name" : "check_simultaneous_heating_and_cooling_max_tol",
                  "value" : 0.050000000000000003
               },
               {
                  "name" : "check_internal_loads",
                  "value" : true
               },
               {
                  "name" : "check_internal_loads_tol",
                  "value" : 0.10000000000000001
               },
               {
                  "name" : "check_schedules",
                  "value" : true
               },
               {
                  "name" : "check_schedules_tol",
                  "value" : 0.050000000000000003
               },
               {
                  "name" : "check_envelope_conductance",
                  "value" : true
               },
               {
                  "name" : "check_envelope_conductance_tol",
                  "value" : 0.10000000000000001
               },
               {
                  "name" : "check_domestic_hot_water",
                  "value" : true
               },
               {
                  "name" : "check_domestic_hot_water_tol",
                  "value" : 0.25
               },
               {
                  "name" : "check_mech_sys_efficiency",
                  "value" : true
               },
               {
                  "name" : "check_mech_sys_efficiency_tol",
                  "value" : 0.10000000000000001
               },
               {
                  "name" : "check_mech_sys_type",
                  "value" : true
               },
               {
                  "name" : "check_supply_air_and_thermostat_temp_difference",
                  "value" : true
               },
               {
                  "name" : "check_supply_air_and_thermostat_temp_difference_tol",
                  "value" : 0.5
               },
               {
                  "name" : "eui_reasonableness",
                  "units" : "flags",
                  "value" : 1
               },
               {
                  "name" : "end_use_by_category",
                  "units" : "flags",
                  "value" : 4
               },
               {
                  "name" : "mechanical_system_part_load_efficiency",
                  "units" : "flags",
                  "value" : 0
               },
               {
                  "name" : "mechanical_system_capacity",
                  "units" : "flags",
                  "value" : 0
               },
               {
                  "name" : "simultaneous_heating_and_cooling",
                  "units" : "flags",
                  "value" : 0
               },
               {
                  "name" : "internal_loads",
                  "units" : "flags",
                  "value" : 1
               },
               {
                  "name" : "schedules",
                  "units" : "flags",
                  "value" : 3
               },
               {
                  "name" : "envelope_r_value",
                  "units" : "flags",
                  "value" : 6
               },
               {
                  "name" : "domestic_hot_water",
                  "units" : "flags",
                  "value" : 1
               },
               {
                  "name" : "mechanical_system_efficiency",
                  "units" : "flags",
                  "value" : 1
               },
               {
                  "name" : "mechanical_system_type",
                  "units" : "flags",
                  "value" : 5
               },
               {
                  "name" : "supply_and_zone_air_temperature",
                  "units" : "flags",
                  "value" : 1
               },
               {
                  "name" : "total_qaqc_flags",
                  "units" : "flags",
                  "value" : 23
               }
            ],
            "step_warnings" : [
               "EUI Reasonableness - Model EUI of 43.6 (kBtu/ft^2) is more than 10.0 % above the expected EUI of 28.2 (kBtu/ft^2) for 90.1-2013.",
               "End Use by Category - Heating EUI of 4.40654 (kBtu/ft^2) is more than 25.0 % above the expected Heating EUI of 1.1 (kBtu/ft^2) for 90.1-2013.",
               "End Use by Category - Cooling EUI of 11.77605 (kBtu/ft^2) is more than 25.0 % above the expected Cooling EUI of 2.0 (kBtu/ft^2) for 90.1-2013.",
               "End Use by Category - Interior Lighting EUI of 13.25753 (kBtu/ft^2) is more than 25.0 % above the expected Interior Lighting EUI of 7.8 (kBtu/ft^2) for 90.1-2013.",
               "End Use by Category - Interior Equipment EUI of 5.04048 (kBtu/ft^2) is less than 25.0 % below the expected Interior Equipment EUI of 8.3 (kBtu/ft^2) for 90.1-2013.",
               "Internal Loads - Lighting Power Density of 2.67 (W/ft^2) for Office WholeBuilding - Sm Office is more than 10.0 % above the expected value of 0.82 (W/ft^2) for ASHRAE 90.1-2013.",
               "Schedules - 1643 annual equivalent full load hours for OfficeSmall BLDG_LIGHT_SCH - (shifted -1.63 hours) Expanded or Contracted in Office WholeBuilding - Sm Office is more than 5.0 (%) below the typical value of 3654 hours from the DOE Prototype building.",
               "Schedules - 2416 annual equivalent full load hours for OfficeSmall BLDG_EQUIP_SCH - (shifted -1.63 hours) Expanded or Contracted in Office WholeBuilding - Sm Office is more than 5.0 (%) below the typical value of 4320 hours from the DOE Prototype building.",
               "Schedules - 1206 annual equivalent full load hours for OfficeSmall BLDG_OCC_SCH - (shifted -1.63 hours) Expanded or Contracted in Office WholeBuilding - Sm Office is more than 5.0 (%) below the typical value of 2521 hours from the DOE Prototype building.",
               "Envelope R-Value - R value of 13.51 (ft^2*h*R/Btu) for Typical Insulated Exterior Mass Floor R-13.51 in Office Attic is more than 10.0 % below the expected value of 17.54 (ft^2*h*R/Btu) for ASHRAE 90.1-2013.",
               "Envelope R-Value - Solar Reflectance of 30 % for Typical Insulated Exterior Mass Floor R-13.51 in Office Attic is more than 10.0 % above the expected value of 0 %.",
               "Envelope R-Value - R value of 52.02 (ft^2*h*R/Btu) for Typical IEAD Roof R-20.83 adj roof insulation in Office Attic is more than 10.0 % above the expected value of 31.25 (ft^2*h*R/Btu) for ASHRAE 90.1-2013.",
               "Envelope R-Value - Solar Reflectance of 23 % for Typical IEAD Roof R-20.83 adj roof insulation in Office Attic is more than 10.0 % below the expected value of 55 %.",
               "Envelope R-Value - R value of 58.12 (ft^2*h*R/Btu) for Typical Insulated Exterior Mass Wall R-11.11 adj ext wall insulation in Office WholeBuilding - Sm Office is more than 10.0 % above the expected value of 18.18 (ft^2*h*R/Btu) for ASHRAE 90.1-2013.",
               "Envelope R-Value - U value of 0.47 (Btu/ft^2*h*R) for U 0.52 SHGC 0.40 Dbl Ref-D Clr 6mm/13mm Air in Office WholeBuilding - Sm Office is more than 10.0 % below the expected value of 0.77 (Btu/ft^2*h*R) for ASHRAE 90.1-2013.",
               "Domestic Hot Water - Annual average of 22 gallons per day of hot water is more than 25.0 % below the expected value of 31 gallons per day.",
               "Mechanical System Efficiency - Motor efficiency of 0.86 for Service Water Loop Pump is more than 10.0 % above the expected value of 0.7 for ASHRAE 90.1-2013.",
               "Mechanical System Type - Perimeter_ZN_4 ZN baseline system type is incorrect. Supposed to be PSZ_AC, but was Unknown instead.",
               "Mechanical System Type - Perimeter_ZN_1 ZN baseline system type is incorrect. Supposed to be PSZ_AC, but was Unknown instead.",
               "Mechanical System Type - Perimeter_ZN_2 ZN baseline system type is incorrect. Supposed to be PSZ_AC, but was Unknown instead.",
               "Mechanical System Type - Perimeter_ZN_3 ZN baseline system type is incorrect. Supposed to be PSZ_AC, but was Unknown instead.",
               "Mechanical System Type - Core_ZN ZN baseline system type is incorrect. Supposed to be PSZ_AC, but was Unknown instead.",
               "Supply and Zone Air Temperature - Can't inspect thermostat schedules for Attic ZN"
            ]
         }
      },
      {
         "arguments" : {},
         "description" : "Add report variables for post processing the ambient loop data.",
         "measure_dir_name" : "ambient_loop_reports",
         "name" : "ambient_loop_reports",
         "result" : {
            "completed_at" : "20201116T025359Z",
            "measure_class_name" : "AmbientLoopReports",
            "measure_display_name" : "Ambient Loop Reports",
            "measure_name" : "ambient_loop_reports",
            "measure_taxonomy" : "Reporting.QAQC",
            "measure_type" : "ReportingMeasure",
            "measure_uid" : "9b470a52-d218-4b50-80dd-d229ce73438d",
            "measure_version_id" : "7b5763ec-8502-477b-9941-21a4211cd7e7",
            "measure_version_modified" : "20190308T081724Z",
            "measure_xml_checksum" : "15BF4E57",
            "started_at" : "20201116T025358Z",
            "stderr" : "",
            "stdout" : "",
            "step_errors" : [],
            "step_files" : [
               "/mnt/openstudio/analysis_489db9b0-7cc1-41f8-800f-6aa50d791e0b/data_point_94f04594-e835-4125-87e9-98d44c174ee6/run/015_ambient_loop_reports/report_timeseries.csv"
            ],
            "step_info" : [
               "Date Time,Month,Day,Day of Week,Hour,Minute,Site Outdoor Air Drybulb Temperature,Site Outdoor Air Relative Humidity,HeatingElectricity,CoolingElectricity,ElectricityFacility,District Heating Inlet Temperature,District Cooling Inlet Temperature,District Heating Outlet Temperature,District Cooling Outlet Temperature,District Heating Mass Flow Rate,District Cooling Mass Flow Rate,District Heating Hot Water Energy,District Cooling Chilled Water Energy"
            ],
            "step_result" : "Success",
            "step_values" : [
               {
                  "name" : "energyplus_runtime",
                  "units" : "sec",
                  "value" : 12.289999999999999
               }
            ],
            "step_warnings" : []
         }
      }
   ],
   "updated_at" : "20201116T025404Z",
   "weather_file" : "USA_CO_Golden-NREL.724666_TMY3.epw"
}
